version 2
run General-0-20200211-15:24:01-18255
attr configname General
attr datetime 20200211-15:24:01
attr experiment General
attr inifile omnetpp.ini
attr iterationvars ""
attr iterationvarsf ""
attr measurement ""
attr network Scenario
attr processid 18255
attr repetition 0
attr replication #0
attr resultdir results
attr runnumber 0
attr seedset 0
param *.node[*].numApps 1
param *.node[*].app[0].typename "\"org.car2x.veins.subprojects.veins_inet.VeinsInetSampleApplication\""
param *.node[*].app[0].interface "\"wlan0\""
param *.node[*].wlan[0].opMode "\"a\""
param *.node[*].wlan[0].radio.bandName "\"5.9 GHz\""
param *.node[*].wlan[0].radio.channelNumber 3
param *.node[*].wlan[0].radio.transmitter.power 20mW
param *.node[*].wlan[0].radio.bandwidth "10 MHz"
param *.node[*].ifConfig.interfaces "\"wlan0\""
param *.node[*].ifConfig.mcastGroups "\"224.0.0.1\""
param *.node[*].mobility.typename "\"VeinsInetMobility\""
param *.manager.updateInterval 0.1s
param *.manager.host "\"localhost\""
param *.manager.port 9999
param *.manager.autoShutdown true
param *.manager.launchConfig "xmldoc(\"square.launchd.xml\")"
param *.manager.moduleType "\"org.car2x.veins.subprojects.veins_inet.VeinsInetCar\""

vector 0 Scenario.node[0].wlan[0].radio radioMode:vector ETV
attr interpolationmode sample-hold
attr source radioModeChanged
attr title "Radio mode, vector"
vector 1 Scenario.node[0].wlan[0].radio radioChannel:vector ETV
attr interpolationmode sample-hold
attr source radioChannelChanged
attr title "Radio channel, vector"
vector 2 Scenario.node[0].wlan[0].radio receptionState:vector ETV
attr interpolationmode sample-hold
attr source receptionStateChanged
attr title "Radio reception state, vector"
vector 3 Scenario.node[0].wlan[0].mac.dcf.channelAccess.contention state:vector ETV
attr interpolationmode none
attr source stateChanged
attr title "contention state, vector"
vector 4 Scenario.node[0].wlan[0].mac.hcf.edca.edcaf[0].contention state:vector ETV
attr interpolationmode none
attr source stateChanged
attr title "contention state, vector"
vector 5 Scenario.node[0].wlan[0].mac.hcf.edca.edcaf[1].contention state:vector ETV
attr interpolationmode none
attr source stateChanged
attr title "contention state, vector"
vector 6 Scenario.node[0].wlan[0].mac.hcf.edca.edcaf[2].contention state:vector ETV
attr interpolationmode none
attr source stateChanged
attr title "contention state, vector"
vector 7 Scenario.node[0].wlan[0].mac.hcf.edca.edcaf[3].contention state:vector ETV
attr interpolationmode none
attr source stateChanged
attr title "contention state, vector"
vector 8 Scenario.node[1].wlan[0].radio radioMode:vector ETV
attr interpolationmode sample-hold
attr source radioModeChanged
attr title "Radio mode, vector"
vector 9 Scenario.node[1].wlan[0].radio radioChannel:vector ETV
attr interpolationmode sample-hold
attr source radioChannelChanged
attr title "Radio channel, vector"
vector 10 Scenario.node[1].wlan[0].radio receptionState:vector ETV
attr interpolationmode sample-hold
attr source receptionStateChanged
attr title "Radio reception state, vector"
vector 11 Scenario.node[1].wlan[0].mac.dcf.channelAccess.contention state:vector ETV
attr interpolationmode none
attr source stateChanged
attr title "contention state, vector"
vector 12 Scenario.node[1].wlan[0].mac.hcf.edca.edcaf[0].contention state:vector ETV
attr interpolationmode none
attr source stateChanged
attr title "contention state, vector"
vector 13 Scenario.node[1].wlan[0].mac.hcf.edca.edcaf[1].contention state:vector ETV
attr interpolationmode none
attr source stateChanged
attr title "contention state, vector"
vector 14 Scenario.node[1].wlan[0].mac.hcf.edca.edcaf[2].contention state:vector ETV
attr interpolationmode none
attr source stateChanged
attr title "contention state, vector"
vector 15 Scenario.node[1].wlan[0].mac.hcf.edca.edcaf[3].contention state:vector ETV
attr interpolationmode none
attr source stateChanged
attr title "contention state, vector"
vector 16 Scenario.node[2].wlan[0].radio radioMode:vector ETV
attr interpolationmode sample-hold
attr source radioModeChanged
attr title "Radio mode, vector"
vector 17 Scenario.node[2].wlan[0].radio radioChannel:vector ETV
attr interpolationmode sample-hold
attr source radioChannelChanged
attr title "Radio channel, vector"
vector 18 Scenario.node[2].wlan[0].radio receptionState:vector ETV
attr interpolationmode sample-hold
attr source receptionStateChanged
attr title "Radio reception state, vector"
vector 19 Scenario.node[2].wlan[0].mac.dcf.channelAccess.contention state:vector ETV
attr interpolationmode none
attr source stateChanged
attr title "contention state, vector"
vector 20 Scenario.node[2].wlan[0].mac.hcf.edca.edcaf[0].contention state:vector ETV
attr interpolationmode none
attr source stateChanged
attr title "contention state, vector"
vector 21 Scenario.node[2].wlan[0].mac.hcf.edca.edcaf[1].contention state:vector ETV
attr interpolationmode none
attr source stateChanged
attr title "contention state, vector"
vector 22 Scenario.node[2].wlan[0].mac.hcf.edca.edcaf[2].contention state:vector ETV
attr interpolationmode none
attr source stateChanged
attr title "contention state, vector"
vector 23 Scenario.node[2].wlan[0].mac.hcf.edca.edcaf[3].contention state:vector ETV
attr interpolationmode none
attr source stateChanged
attr title "contention state, vector"
vector 24 Scenario.node[0].app[0] packetSent:vector(packetBytes) ETV
attr interpolationmode none
attr source packetSent
attr title "packets sent, vector(packetBytes)"
vector 25 Scenario.node[0].udp packetSent:vector(packetBytes) ETV
attr interpolationmode none
attr source packetSent
attr title "packets sent, vector(packetBytes)"
vector 26 Scenario.node[0].lo[0].lo rcvdPkFromHl:vector(packetBytes) ETV
attr interpolationmode none
attr source packetReceivedFromUpper
attr title "packets received from higher layer, vector(packetBytes)"
vector 27 Scenario.node[0].lo[0].lo passedUpPk:vector(packetBytes) ETV
attr interpolationmode none
attr source packetSentToUpper
attr title "packets passed to higher layer, vector(packetBytes)"
vector 28 Scenario.node[0].wlan[0].mac rcvdPkFromHl:vector(packetBytes) ETV
attr interpolationmode none
attr source packetReceivedFromUpper
attr title "packets received from higher layer, vector(packetBytes)"
vector 29 Scenario.node[0].udp packetReceived:vector(packetBytes) ETV
attr interpolationmode none
attr source packetReceived
attr title "packets received, vector(packetBytes)"
vector 30 Scenario.node[0].udp passedUpPk:vector(count) ETV
attr interpolationmode none
attr source packetSentToUpper
attr title "packets passed up, vector(count)"
vector 31 Scenario.node[0].wlan[0].mac sentDownPk:vector(packetBytes) ETV
attr interpolationmode none
attr source packetSentToLower
attr title "packets sent to lower layer, vector(packetBytes)"
vector 32 Scenario.node[0].wlan[0].radio transmissionState:vector ETV
attr interpolationmode sample-hold
attr source transmissionStateChanged
attr title "Radio transmission state, vector"
vector 33 Scenario.node[1].wlan[0].mac rcvdPkFromLl:vector(packetBytes) ETV
attr interpolationmode none
attr source packetReceivedFromLower
attr title "packets received from lower layer, vector(packetBytes)"
vector 34 Scenario.node[1].wlan[0].mac passedUpPk:vector(packetBytes) ETV
attr interpolationmode none
attr source packetSentToUpper
attr title "packets passed to higher layer, vector(packetBytes)"
vector 35 Scenario.node[1].udp packetReceived:vector(packetBytes) ETV
attr interpolationmode none
attr source packetReceived
attr title "packets received, vector(packetBytes)"
vector 36 Scenario.node[1].udp passedUpPk:vector(count) ETV
attr interpolationmode none
attr source packetSentToUpper
attr title "packets passed up, vector(count)"
vector 37 Scenario.node[1].app[0] packetReceived:vector(packetBytes) ETV
attr interpolationmode none
attr source packetReceived
attr title "packets received, vector(packetBytes)"
vector 38 Scenario.node[1].app[0] throughput:vector ETV
attr source throughput(packetReceived)
attr title "throughput, vector"
attr unit bps
vector 39 Scenario.node[1].app[0] packetSent:vector(packetBytes) ETV
attr interpolationmode none
attr source packetSent
attr title "packets sent, vector(packetBytes)"
vector 40 Scenario.node[1].udp packetSent:vector(packetBytes) ETV
attr interpolationmode none
attr source packetSent
attr title "packets sent, vector(packetBytes)"
vector 41 Scenario.node[1].lo[0].lo rcvdPkFromHl:vector(packetBytes) ETV
attr interpolationmode none
attr source packetReceivedFromUpper
attr title "packets received from higher layer, vector(packetBytes)"
vector 42 Scenario.node[1].lo[0].lo passedUpPk:vector(packetBytes) ETV
attr interpolationmode none
attr source packetSentToUpper
attr title "packets passed to higher layer, vector(packetBytes)"
vector 43 Scenario.node[1].wlan[0].mac rcvdPkFromHl:vector(packetBytes) ETV
attr interpolationmode none
attr source packetReceivedFromUpper
attr title "packets received from higher layer, vector(packetBytes)"
vector 44 Scenario.node[2].wlan[0].mac rcvdPkFromLl:vector(packetBytes) ETV
attr interpolationmode none
attr source packetReceivedFromLower
attr title "packets received from lower layer, vector(packetBytes)"
vector 45 Scenario.node[2].wlan[0].mac passedUpPk:vector(packetBytes) ETV
attr interpolationmode none
attr source packetSentToUpper
attr title "packets passed to higher layer, vector(packetBytes)"
vector 46 Scenario.node[2].udp packetReceived:vector(packetBytes) ETV
attr interpolationmode none
attr source packetReceived
attr title "packets received, vector(packetBytes)"
vector 47 Scenario.node[2].udp passedUpPk:vector(count) ETV
attr interpolationmode none
attr source packetSentToUpper
attr title "packets passed up, vector(count)"
vector 48 Scenario.node[2].app[0] packetReceived:vector(packetBytes) ETV
attr interpolationmode none
attr source packetReceived
attr title "packets received, vector(packetBytes)"
vector 49 Scenario.node[2].app[0] throughput:vector ETV
attr source throughput(packetReceived)
attr title "throughput, vector"
attr unit bps
vector 50 Scenario.node[2].app[0] packetSent:vector(packetBytes) ETV
attr interpolationmode none
attr source packetSent
attr title "packets sent, vector(packetBytes)"
vector 51 Scenario.node[2].udp packetSent:vector(packetBytes) ETV
attr interpolationmode none
attr source packetSent
attr title "packets sent, vector(packetBytes)"
vector 52 Scenario.node[2].lo[0].lo rcvdPkFromHl:vector(packetBytes) ETV
attr interpolationmode none
attr source packetReceivedFromUpper
attr title "packets received from higher layer, vector(packetBytes)"
vector 53 Scenario.node[2].lo[0].lo passedUpPk:vector(packetBytes) ETV
attr interpolationmode none
attr source packetSentToUpper
attr title "packets passed to higher layer, vector(packetBytes)"
vector 54 Scenario.node[2].wlan[0].mac rcvdPkFromHl:vector(packetBytes) ETV
attr interpolationmode none
attr source packetReceivedFromUpper
attr title "packets received from higher layer, vector(packetBytes)"
vector 55 Scenario.node[2].wlan[0].mac sentDownPk:vector(packetBytes) ETV
attr interpolationmode none
attr source packetSentToLower
attr title "packets sent to lower layer, vector(packetBytes)"
vector 56 Scenario.node[2].wlan[0].radio transmissionState:vector ETV
attr interpolationmode sample-hold
attr source transmissionStateChanged
attr title "Radio transmission state, vector"
vector 57 Scenario.node[0].wlan[0].mac rcvdPkFromLl:vector(packetBytes) ETV
attr interpolationmode none
attr source packetReceivedFromLower
attr title "packets received from lower layer, vector(packetBytes)"
vector 58 Scenario.node[0].wlan[0].mac passedUpPk:vector(packetBytes) ETV
attr interpolationmode none
attr source packetSentToUpper
attr title "packets passed to higher layer, vector(packetBytes)"
vector 59 Scenario.node[0].app[0] packetReceived:vector(packetBytes) ETV
attr interpolationmode none
attr source packetReceived
attr title "packets received, vector(packetBytes)"
vector 60 Scenario.node[0].app[0] throughput:vector ETV
attr source throughput(packetReceived)
attr title "throughput, vector"
attr unit bps
vector 61 Scenario.node[1].wlan[0].mac sentDownPk:vector(packetBytes) ETV
attr interpolationmode none
attr source packetSentToLower
attr title "packets sent to lower layer, vector(packetBytes)"
vector 62 Scenario.node[1].wlan[0].radio transmissionState:vector ETV
attr interpolationmode sample-hold
attr source transmissionStateChanged
attr title "Radio transmission state, vector"
41	237	20.000076182943	128
42	237	20.000076182943	128
33	230	20.000076182943	164
33	267	20.00023161234	164
33	296	20.000341940889	164
61	309	20.000465940889	164
43	240	20.000076182943	136
34	230	20.000076182943	136
34	267	20.00023161234	136
34	296	20.000341940889	136
11	55	5.1	0
11	55	5.1	0
11	225	20.000000182943	0
11	225	20.000000182943	0
11	229	20.000076182943	0
11	229	20.000076182943	0
11	240	20.000076182943	0
11	240	20.000076182943	2
11	262	20.00015561234	2
11	262	20.00015561234	1
11	266	20.00023161234	1
11	266	20.00023161234	2
11	291	20.000265940889	2
11	291	20.000265940889	1
11	295	20.000341940889	1
11	295	20.000341940889	2
11	307	20.000465940889	2
11	307	20.000465940889	0
11	310	20.000465940889	0
11	310	20.000465940889	0
11	315	20.000541940889	0
11	315	20.000541940889	0
12	55	5.1	0
12	55	5.1	0
12	225	20.000000182943	0
12	225	20.000000182943	0
12	229	20.000076182943	0
12	229	20.000076182943	0
12	262	20.00015561234	0
12	262	20.00015561234	0
12	266	20.00023161234	0
12	266	20.00023161234	0
12	291	20.000265940889	0
12	291	20.000265940889	0
12	295	20.000341940889	0
12	295	20.000341940889	0
12	310	20.000465940889	0
12	310	20.000465940889	0
12	315	20.000541940889	0
12	315	20.000541940889	0
13	55	5.1	0
13	55	5.1	0
13	225	20.000000182943	0
13	225	20.000000182943	0
13	229	20.000076182943	0
13	229	20.000076182943	0
13	262	20.00015561234	0
13	262	20.00015561234	0
13	266	20.00023161234	0
13	266	20.00023161234	0
13	291	20.000265940889	0
13	291	20.000265940889	0
13	295	20.000341940889	0
13	295	20.000341940889	0
13	310	20.000465940889	0
13	310	20.000465940889	0
13	315	20.000541940889	0
13	315	20.000541940889	0
14	55	5.1	0
14	55	5.1	0
14	225	20.000000182943	0
14	225	20.000000182943	0
14	229	20.000076182943	0
14	229	20.000076182943	0
14	262	20.00015561234	0
14	262	20.00015561234	0
14	266	20.00023161234	0
14	266	20.00023161234	0
14	291	20.000265940889	0
14	291	20.000265940889	0
14	295	20.000341940889	0
14	295	20.000341940889	0
14	310	20.000465940889	0
14	310	20.000465940889	0
14	315	20.000541940889	0
14	315	20.000541940889	0
15	55	5.1	0
15	55	5.1	0
15	225	20.000000182943	0
15	225	20.000000182943	0
15	229	20.000076182943	0
15	229	20.000076182943	0
15	262	20.00015561234	0
15	262	20.00015561234	0
15	266	20.00023161234	0
15	266	20.00023161234	0
15	291	20.000265940889	0
15	291	20.000265940889	0
15	295	20.000341940889	0
15	295	20.000341940889	0
15	310	20.000465940889	0
15	310	20.000465940889	0
15	315	20.000541940889	0
15	315	20.000541940889	0
9	55	5.1	3
8	55	5.1	0
8	55	5.1	0
8	55	5.1	2
8	310	20.000465940889	3
8	315	20.000541940889	2
10	55	5.1	1
10	225	20.000000182943	3
10	229	20.000076182943	1
10	262	20.00015561234	3
10	266	20.00023161234	1
10	291	20.000265940889	3
10	295	20.000341940889	1
10	310	20.000465940889	0
10	315	20.000541940889	1
62	310	20.000465940889	1
62	311	20.000465940889	2
62	314	20.000541940889	1
62	315	20.000541940889	0
35	233	20.000076182943	108
35	241	20.000076182943	108
35	270	20.00023161234	108
35	299	20.000341940889	108
40	235	20.000076182943	108
36	233	20.000076182943	1
36	241	20.000076182943	2
36	270	20.00023161234	3
36	299	20.000341940889	4
38	234	0.1	0
38	234	0.2	0
38	234	0.3	0
38	234	0.4	0
38	234	0.5	0
38	234	0.6	0
38	234	0.7	0
38	234	0.8	0
38	234	0.9	0
38	234	1	0
38	234	1.1	0
38	234	1.2	0
38	234	1.3	0
38	234	1.4	0
38	234	1.5	0
38	234	1.6	0
38	234	1.7	0
38	234	1.8	0
38	234	1.9	0
38	234	2	0
38	234	2.1	0
38	234	2.2	0
38	234	2.3	0
38	234	2.4	0
38	234	2.5	0
38	234	2.6	0
38	234	2.7	0
38	234	2.8	0
38	234	2.9	0
38	234	3	0
38	234	3.1	0
38	234	3.2	0
38	234	3.3	0
38	234	3.4	0
38	234	3.5	0
38	234	3.6	0
38	234	3.7	0
38	234	3.8	0
38	234	3.9	0
38	234	4	0
38	234	4.1	0
38	234	4.2	0
38	234	4.3	0
38	234	4.4	0
38	234	4.5	0
38	234	4.6	0
38	234	4.7	0
38	234	4.8	0
38	234	4.9	0
38	234	5	0
38	234	5.1	0
38	234	5.2	0
38	234	5.3	0
38	234	5.4	0
38	234	5.5	0
38	234	5.6	0
38	234	5.7	0
38	234	5.8	0
38	234	5.9	0
38	234	6	0
38	234	6.1	0
38	234	6.2	0
38	234	6.3	0
38	234	6.4	0
38	234	6.5	0
38	234	6.6	0
38	234	6.7	0
38	234	6.8	0
38	234	6.9	0
38	234	7	0
38	234	7.1	0
38	234	7.2	0
38	234	7.3	0
38	234	7.4	0
38	234	7.5	0
38	234	7.6	0
38	234	7.7	0
38	234	7.8	0
38	234	7.9	0
38	234	8	0
38	234	8.1	0
38	234	8.2	0
38	234	8.3	0
38	234	8.4	0
38	234	8.5	0
38	234	8.6	0
38	234	8.7	0
38	234	8.8	0
38	234	8.9	0
38	234	9	0
38	234	9.1	0
38	234	9.2	0
38	234	9.3	0
38	234	9.4	0
38	234	9.5	0
38	234	9.6	0
38	234	9.7	0
38	234	9.8	0
38	234	9.9	0
38	234	10	0
38	234	10.1	0
38	234	10.2	0
38	234	10.3	0
38	234	10.4	0
38	234	10.5	0
38	234	10.6	0
38	234	10.7	0
38	234	10.8	0
38	234	10.9	0
38	234	11	0
38	234	11.1	0
38	234	11.2	0
38	234	11.3	0
38	234	11.4	0
38	234	11.5	0
38	234	11.6	0
38	234	11.7	0
38	234	11.8	0
38	234	11.9	0
38	234	12	0
38	234	12.1	0
38	234	12.2	0
38	234	12.3	0
38	234	12.4	0
38	234	12.5	0
38	234	12.6	0
38	234	12.7	0
38	234	12.8	0
38	234	12.9	0
38	234	13	0
38	234	13.1	0
38	234	13.2	0
38	234	13.3	0
38	234	13.4	0
38	234	13.5	0
38	234	13.6	0
38	234	13.7	0
38	234	13.8	0
38	234	13.9	0
38	234	14	0
38	234	14.1	0
38	234	14.2	0
38	234	14.3	0
38	234	14.4	0
38	234	14.5	0
38	234	14.6	0
38	234	14.7	0
38	234	14.8	0
38	234	14.9	0
38	234	15	0
38	234	15.1	0
38	234	15.2	0
38	234	15.3	0
38	234	15.4	0
38	234	15.5	0
38	234	15.6	0
38	234	15.7	0
38	234	15.8	0
38	234	15.9	0
38	234	16	0
38	234	16.1	0
38	234	16.2	0
38	234	16.3	0
38	234	16.4	0
38	234	16.5	0
38	234	16.6	0
38	234	16.7	0
38	234	16.8	0
38	234	16.9	0
38	234	17	0
38	234	17.1	0
38	234	17.2	0
38	234	17.3	0
38	234	17.4	0
38	234	17.5	0
38	234	17.6	0
38	234	17.7	0
38	234	17.8	0
38	234	17.9	0
38	234	18	0
38	234	18.1	0
38	234	18.2	0
38	234	18.3	0
38	234	18.4	0
38	234	18.5	0
38	234	18.6	0
38	234	18.7	0
38	234	18.8	0
38	234	18.9	0
38	234	19	0
38	234	19.1	0
38	234	19.2	0
38	234	19.3	0
38	234	19.4	0
38	234	19.5	0
38	234	19.6	0
38	234	19.7	0
38	234	19.8	0
38	234	19.9	0
38	234	20	0
38	578	20.1	24000
38	578	20.2	0
38	578	20.3	0
38	578	20.4	0
38	578	20.5	0
38	578	20.6	0
38	578	20.7	0
38	578	20.8	0
38	578	20.9	0
38	578	21	0
38	578	21.1	0
38	578	21.2	0
38	578	21.3	0
38	578	21.4	0
38	578	21.5	0
38	578	21.6	0
38	578	21.7	0
38	578	21.8	0
38	578	21.9	0
38	578	22	0
38	578	22.1	0
38	578	22.2	0
38	578	22.3	0
38	578	22.4	0
38	578	22.5	0
38	578	22.6	0
38	578	22.7	0
38	578	22.8	0
38	578	22.9	0
38	578	23	0
38	578	23.1	0
38	578	23.2	0
38	578	23.3	0
38	578	23.4	0
38	578	23.5	0
38	578	23.6	0
38	578	23.7	0
38	578	23.8	0
38	578	23.9	0
38	578	24	0
38	578	24.1	0
38	578	24.2	0
38	578	24.3	0
38	578	24.4	0
38	578	24.5	0
38	578	24.6	0
38	578	24.7	0
38	578	24.8	0
38	578	24.9	0
38	578	25	0
38	578	25.1	0
38	578	25.2	0
38	578	25.3	0
38	578	25.4	0
38	578	25.5	0
38	578	25.6	0
38	578	25.7	0
38	578	25.8	0
38	578	25.9	0
38	578	26	0
38	578	26.1	0
38	578	26.2	0
38	578	26.3	0
38	578	26.4	0
38	578	26.5	0
38	578	26.6	0
38	578	26.7	0
38	578	26.8	0
38	578	26.9	0
38	578	27	0
38	578	27.1	0
38	578	27.2	0
38	578	27.3	0
38	578	27.4	0
38	578	27.5	0
38	578	27.6	0
38	578	27.7	0
38	578	27.8	0
38	578	27.9	0
38	578	28	0
38	578	28.1	0
38	578	28.2	0
38	578	28.3	0
38	578	28.4	0
38	578	28.5	0
38	578	28.6	0
38	578	28.7	0
38	578	28.8	0
38	578	28.9	0
38	578	29	0
38	578	29.1	0
38	578	29.2	0
38	578	29.3	0
38	578	29.4	0
38	578	29.5	0
38	578	29.6	0
38	578	29.7	0
38	578	29.8	0
38	578	29.9	0
38	578	30	0
38	578	30.1	0
38	578	30.2	0
38	578	30.3	0
38	578	30.4	0
38	578	30.5	0
38	578	30.6	0
38	578	30.7	0
38	578	30.8	0
38	578	30.9	0
38	578	31	0
38	578	31.1	0
38	578	31.2	0
38	578	31.3	0
38	578	31.4	0
38	578	31.5	0
38	578	31.6	0
38	578	31.7	0
38	578	31.8	0
38	578	31.9	0
38	578	32	0
38	578	32.1	0
38	578	32.2	0
38	578	32.3	0
38	578	32.4	0
38	578	32.5	0
38	578	32.6	0
38	578	32.7	0
38	578	32.8	0
38	578	32.9	0
38	578	33	0
38	578	33.1	0
38	578	33.2	0
38	578	33.3	0
38	578	33.4	0
38	578	33.5	0
38	578	33.6	0
38	578	33.7	0
38	578	33.8	0
38	578	33.9	0
38	578	34	0
38	578	34.1	0
38	578	34.2	0
38	578	34.3	0
38	578	34.4	0
38	578	34.5	0
38	578	34.6	0
38	578	34.7	0
38	578	34.8	0
38	578	34.9	0
38	578	35	0
38	578	35.1	0
38	578	35.2	0
38	578	35.3	0
38	578	35.4	0
38	578	35.5	0
38	578	35.6	0
38	578	35.7	0
38	578	35.8	0
38	578	35.9	0
38	578	36	0
38	578	36.1	0
38	578	36.2	0
38	578	36.3	0
38	578	36.4	0
38	578	36.5	0
38	578	36.6	0
38	578	36.7	0
38	578	36.8	0
38	578	36.9	0
38	578	37	0
38	578	37.1	0
38	578	37.2	0
38	578	37.3	0
38	578	37.4	0
38	578	37.5	0
38	578	37.6	0
38	578	37.7	0
38	578	37.8	0
38	578	37.9	0
38	578	38	0
38	578	38.1	0
38	578	38.2	0
38	578	38.3	0
38	578	38.4	0
38	578	38.5	0
38	578	38.6	0
38	578	38.7	0
38	578	38.8	0
38	578	38.9	0
38	578	39	0
38	578	39.1	0
38	578	39.2	0
38	578	39.3	0
38	578	39.4	0
38	578	39.5	0
38	578	39.6	0
38	578	39.7	0
38	578	39.8	0
38	578	39.9	0
38	578	40	0
38	578	40.1	0
38	578	40.2	0
38	578	40.3	0
38	578	40.4	0
38	578	40.5	0
38	578	40.6	0
38	578	40.7	0
38	578	40.8	0
38	578	40.9	0
38	578	41	0
38	578	41.1	0
38	578	41.2	0
38	578	41.3	0
38	578	41.4	0
38	578	41.5	0
38	578	41.6	0
38	578	41.7	0
38	578	41.8	0
38	578	41.9	0
38	578	42	0
38	578	42.1	0
38	578	42.2	0
38	578	42.3	0
38	578	42.4	0
38	578	42.5	0
38	578	42.6	0
38	578	42.7	0
38	578	42.8	0
38	578	42.9	0
38	578	43	0
38	578	43.1	0
38	578	43.2	0
38	578	43.3	0
38	578	43.4	0
38	578	43.5	0
38	578	43.6	0
38	578	43.7	0
38	578	43.8	0
38	578	43.9	0
38	578	44	0
38	578	44.1	0
38	578	44.2	0
38	578	44.3	0
38	578	44.4	0
38	578	44.5	0
38	578	44.6	0
38	578	44.7	0
37	234	20.000076182943	100
37	271	20.00023161234	100
37	300	20.000341940889	100
39	234	20.000076182943	100
52	251	20.000076378973	128
53	251	20.000076378973	128
44	244	20.000076378973	164
44	302	20.000342136919	164
44	323	20.000542174256	164
55	259	20.000155378973	164
54	254	20.000076378973	136
45	244	20.000076378973	136
45	302	20.000342136919	136
45	323	20.000542174256	136
19	108	10.1	0
19	108	10.1	0
19	226	20.000000378973	0
19	226	20.000000378973	0
19	243	20.000076378973	0
19	243	20.000076378973	0
19	254	20.000076378973	0
19	254	20.000076378973	2
19	257	20.000155378973	2
19	257	20.000155378973	0
19	260	20.000155378973	0
19	260	20.000155378973	0
19	265	20.000231378973	0
19	265	20.000231378973	0
19	292	20.000266136919	0
19	292	20.000266136919	0
19	301	20.000342136919	0
19	301	20.000342136919	0
19	313	20.000466174256	0
19	313	20.000466174256	0
19	322	20.000542174256	0
19	322	20.000542174256	0
20	108	10.1	0
20	108	10.1	0
20	226	20.000000378973	0
20	226	20.000000378973	0
20	243	20.000076378973	0
20	243	20.000076378973	0
20	260	20.000155378973	0
20	260	20.000155378973	0
20	265	20.000231378973	0
20	265	20.000231378973	0
20	292	20.000266136919	0
20	292	20.000266136919	0
20	301	20.000342136919	0
20	301	20.000342136919	0
20	313	20.000466174256	0
20	313	20.000466174256	0
20	322	20.000542174256	0
20	322	20.000542174256	0
21	108	10.1	0
21	108	10.1	0
21	226	20.000000378973	0
21	226	20.000000378973	0
21	243	20.000076378973	0
21	243	20.000076378973	0
21	260	20.000155378973	0
21	260	20.000155378973	0
21	265	20.000231378973	0
21	265	20.000231378973	0
21	292	20.000266136919	0
21	292	20.000266136919	0
21	301	20.000342136919	0
21	301	20.000342136919	0
21	313	20.000466174256	0
21	313	20.000466174256	0
21	322	20.000542174256	0
21	322	20.000542174256	0
22	108	10.1	0
22	108	10.1	0
22	226	20.000000378973	0
22	226	20.000000378973	0
22	243	20.000076378973	0
22	243	20.000076378973	0
22	260	20.000155378973	0
22	260	20.000155378973	0
22	265	20.000231378973	0
22	265	20.000231378973	0
22	292	20.000266136919	0
22	292	20.000266136919	0
22	301	20.000342136919	0
22	301	20.000342136919	0
22	313	20.000466174256	0
22	313	20.000466174256	0
22	322	20.000542174256	0
22	322	20.000542174256	0
23	108	10.1	0
23	108	10.1	0
23	226	20.000000378973	0
23	226	20.000000378973	0
23	243	20.000076378973	0
23	243	20.000076378973	0
23	260	20.000155378973	0
23	260	20.000155378973	0
23	265	20.000231378973	0
23	265	20.000231378973	0
23	292	20.000266136919	0
23	292	20.000266136919	0
23	301	20.000342136919	0
23	301	20.000342136919	0
23	313	20.000466174256	0
23	313	20.000466174256	0
23	322	20.000542174256	0
23	322	20.000542174256	0
17	108	10.1	3
16	108	10.1	0
16	108	10.1	0
16	108	10.1	2
16	260	20.000155378973	3
16	265	20.000231378973	2
18	108	10.1	1
18	226	20.000000378973	3
18	243	20.000076378973	1
18	260	20.000155378973	0
18	265	20.000231378973	1
18	292	20.000266136919	3
18	301	20.000342136919	1
18	313	20.000466174256	3
18	322	20.000542174256	1
56	260	20.000155378973	1
56	261	20.000155378973	2
56	264	20.000231378973	1
56	265	20.000231378973	0
46	247	20.000076378973	108
46	255	20.000076378973	108
46	305	20.000342136919	108
46	326	20.000542174256	108
51	249	20.000076378973	108
47	247	20.000076378973	1
47	255	20.000076378973	2
47	305	20.000342136919	3
47	326	20.000542174256	4
49	248	0.1	0
49	248	0.2	0
49	248	0.3	0
49	248	0.4	0
49	248	0.5	0
49	248	0.6	0
49	248	0.7	0
49	248	0.8	0
49	248	0.9	0
49	248	1	0
49	248	1.1	0
49	248	1.2	0
49	248	1.3	0
49	248	1.4	0
49	248	1.5	0
49	248	1.6	0
49	248	1.7	0
49	248	1.8	0
49	248	1.9	0
49	248	2	0
49	248	2.1	0
49	248	2.2	0
49	248	2.3	0
49	248	2.4	0
49	248	2.5	0
49	248	2.6	0
49	248	2.7	0
49	248	2.8	0
49	248	2.9	0
49	248	3	0
49	248	3.1	0
49	248	3.2	0
49	248	3.3	0
49	248	3.4	0
49	248	3.5	0
49	248	3.6	0
49	248	3.7	0
49	248	3.8	0
49	248	3.9	0
49	248	4	0
49	248	4.1	0
49	248	4.2	0
49	248	4.3	0
49	248	4.4	0
49	248	4.5	0
49	248	4.6	0
49	248	4.7	0
49	248	4.8	0
49	248	4.9	0
49	248	5	0
49	248	5.1	0
49	248	5.2	0
49	248	5.3	0
49	248	5.4	0
49	248	5.5	0
49	248	5.6	0
49	248	5.7	0
49	248	5.8	0
49	248	5.9	0
49	248	6	0
49	248	6.1	0
49	248	6.2	0
49	248	6.3	0
49	248	6.4	0
49	248	6.5	0
49	248	6.6	0
49	248	6.7	0
49	248	6.8	0
49	248	6.9	0
49	248	7	0
49	248	7.1	0
49	248	7.2	0
49	248	7.3	0
49	248	7.4	0
49	248	7.5	0
49	248	7.6	0
49	248	7.7	0
49	248	7.8	0
49	248	7.9	0
49	248	8	0
49	248	8.1	0
49	248	8.2	0
49	248	8.3	0
49	248	8.4	0
49	248	8.5	0
49	248	8.6	0
49	248	8.7	0
49	248	8.8	0
49	248	8.9	0
49	248	9	0
49	248	9.1	0
49	248	9.2	0
49	248	9.3	0
49	248	9.4	0
49	248	9.5	0
49	248	9.6	0
49	248	9.7	0
49	248	9.8	0
49	248	9.9	0
49	248	10	0
49	248	10.1	0
49	248	10.2	0
49	248	10.3	0
49	248	10.4	0
49	248	10.5	0
49	248	10.6	0
49	248	10.7	0
49	248	10.8	0
49	248	10.9	0
49	248	11	0
49	248	11.1	0
49	248	11.2	0
49	248	11.3	0
49	248	11.4	0
49	248	11.5	0
49	248	11.6	0
49	248	11.7	0
49	248	11.8	0
49	248	11.9	0
49	248	12	0
49	248	12.1	0
49	248	12.2	0
49	248	12.3	0
49	248	12.4	0
49	248	12.5	0
49	248	12.6	0
49	248	12.7	0
49	248	12.8	0
49	248	12.9	0
49	248	13	0
49	248	13.1	0
49	248	13.2	0
49	248	13.3	0
49	248	13.4	0
49	248	13.5	0
49	248	13.6	0
49	248	13.7	0
49	248	13.8	0
49	248	13.9	0
49	248	14	0
49	248	14.1	0
49	248	14.2	0
49	248	14.3	0
49	248	14.4	0
49	248	14.5	0
49	248	14.6	0
49	248	14.7	0
49	248	14.8	0
49	248	14.9	0
49	248	15	0
49	248	15.1	0
49	248	15.2	0
49	248	15.3	0
49	248	15.4	0
49	248	15.5	0
49	248	15.6	0
49	248	15.7	0
49	248	15.8	0
49	248	15.9	0
49	248	16	0
49	248	16.1	0
49	248	16.2	0
49	248	16.3	0
49	248	16.4	0
49	248	16.5	0
49	248	16.6	0
49	248	16.7	0
49	248	16.8	0
49	248	16.9	0
49	248	17	0
49	248	17.1	0
49	248	17.2	0
49	248	17.3	0
49	248	17.4	0
49	248	17.5	0
49	248	17.6	0
49	248	17.7	0
49	248	17.8	0
49	248	17.9	0
49	248	18	0
49	248	18.1	0
49	248	18.2	0
49	248	18.3	0
49	248	18.4	0
49	248	18.5	0
49	248	18.6	0
49	248	18.7	0
49	248	18.8	0
49	248	18.9	0
49	248	19	0
49	248	19.1	0
49	248	19.2	0
49	248	19.3	0
49	248	19.4	0
49	248	19.5	0
49	248	19.6	0
49	248	19.7	0
49	248	19.8	0
49	248	19.9	0
49	248	20	0
49	627	20.1	24000
49	627	20.2	0
49	627	20.3	0
49	627	20.4	0
49	627	20.5	0
49	627	20.6	0
49	627	20.7	0
49	627	20.8	0
49	627	20.9	0
49	627	21	0
49	627	21.1	0
49	627	21.2	0
49	627	21.3	0
49	627	21.4	0
49	627	21.5	0
49	627	21.6	0
49	627	21.7	0
49	627	21.8	0
49	627	21.9	0
49	627	22	0
49	627	22.1	0
49	627	22.2	0
49	627	22.3	0
49	627	22.4	0
49	627	22.5	0
49	627	22.6	0
49	627	22.7	0
49	627	22.8	0
49	627	22.9	0
49	627	23	0
49	627	23.1	0
49	627	23.2	0
49	627	23.3	0
49	627	23.4	0
49	627	23.5	0
49	627	23.6	0
49	627	23.7	0
49	627	23.8	0
49	627	23.9	0
49	627	24	0
49	627	24.1	0
49	627	24.2	0
49	627	24.3	0
49	627	24.4	0
49	627	24.5	0
49	627	24.6	0
49	627	24.7	0
49	627	24.8	0
49	627	24.9	0
49	627	25	0
49	627	25.1	0
49	627	25.2	0
49	627	25.3	0
49	627	25.4	0
49	627	25.5	0
49	627	25.6	0
49	627	25.7	0
49	627	25.8	0
49	627	25.9	0
49	627	26	0
49	627	26.1	0
49	627	26.2	0
49	627	26.3	0
49	627	26.4	0
49	627	26.5	0
49	627	26.6	0
49	627	26.7	0
49	627	26.8	0
49	627	26.9	0
49	627	27	0
49	627	27.1	0
49	627	27.2	0
49	627	27.3	0
49	627	27.4	0
49	627	27.5	0
49	627	27.6	0
49	627	27.7	0
49	627	27.8	0
49	627	27.9	0
49	627	28	0
49	627	28.1	0
49	627	28.2	0
49	627	28.3	0
49	627	28.4	0
49	627	28.5	0
49	627	28.6	0
49	627	28.7	0
49	627	28.8	0
49	627	28.9	0
49	627	29	0
49	627	29.1	0
49	627	29.2	0
49	627	29.3	0
49	627	29.4	0
49	627	29.5	0
49	627	29.6	0
49	627	29.7	0
49	627	29.8	0
49	627	29.9	0
49	627	30	0
49	627	30.1	0
49	627	30.2	0
49	627	30.3	0
49	627	30.4	0
49	627	30.5	0
49	627	30.6	0
49	627	30.7	0
49	627	30.8	0
49	627	30.9	0
49	627	31	0
49	627	31.1	0
49	627	31.2	0
49	627	31.3	0
49	627	31.4	0
49	627	31.5	0
49	627	31.6	0
49	627	31.7	0
49	627	31.8	0
49	627	31.9	0
49	627	32	0
49	627	32.1	0
49	627	32.2	0
49	627	32.3	0
49	627	32.4	0
49	627	32.5	0
49	627	32.6	0
49	627	32.7	0
49	627	32.8	0
49	627	32.9	0
49	627	33	0
49	627	33.1	0
49	627	33.2	0
49	627	33.3	0
49	627	33.4	0
49	627	33.5	0
49	627	33.6	0
49	627	33.7	0
49	627	33.8	0
49	627	33.9	0
49	627	34	0
49	627	34.1	0
49	627	34.2	0
49	627	34.3	0
49	627	34.4	0
49	627	34.5	0
49	627	34.6	0
49	627	34.7	0
49	627	34.8	0
49	627	34.9	0
49	627	35	0
49	627	35.1	0
49	627	35.2	0
49	627	35.3	0
49	627	35.4	0
49	627	35.5	0
49	627	35.6	0
49	627	35.7	0
49	627	35.8	0
49	627	35.9	0
49	627	36	0
49	627	36.1	0
49	627	36.2	0
49	627	36.3	0
49	627	36.4	0
49	627	36.5	0
49	627	36.6	0
49	627	36.7	0
49	627	36.8	0
49	627	36.9	0
49	627	37	0
49	627	37.1	0
49	627	37.2	0
49	627	37.3	0
49	627	37.4	0
49	627	37.5	0
49	627	37.6	0
49	627	37.7	0
49	627	37.8	0
49	627	37.9	0
49	627	38	0
49	627	38.1	0
49	627	38.2	0
49	627	38.3	0
49	627	38.4	0
49	627	38.5	0
49	627	38.6	0
49	627	38.7	0
49	627	38.8	0
49	627	38.9	0
49	627	39	0
49	627	39.1	0
49	627	39.2	0
49	627	39.3	0
49	627	39.4	0
49	627	39.5	0
49	627	39.6	0
49	627	39.7	0
49	627	39.8	0
49	627	39.9	0
49	627	40	0
49	627	40.1	0
49	627	40.2	0
49	627	40.3	0
49	627	40.4	0
49	627	40.5	0
49	627	40.6	0
49	627	40.7	0
49	627	40.8	0
49	627	40.9	0
49	627	41	0
49	627	41.1	0
49	627	41.2	0
49	627	41.3	0
49	627	41.4	0
49	627	41.5	0
49	627	41.6	0
49	627	41.7	0
49	627	41.8	0
49	627	41.9	0
49	627	42	0
49	627	42.1	0
49	627	42.2	0
49	627	42.3	0
49	627	42.4	0
49	627	42.5	0
49	627	42.6	0
49	627	42.7	0
49	627	42.8	0
49	627	42.9	0
49	627	43	0
49	627	43.1	0
49	627	43.2	0
49	627	43.3	0
49	627	43.4	0
49	627	43.5	0
49	627	43.6	0
49	627	43.7	0
49	627	43.8	0
49	627	43.9	0
49	627	44	0
49	627	44.1	0
49	627	44.2	0
49	627	44.3	0
49	627	44.4	0
49	627	44.5	0
49	627	44.6	0
49	627	44.7	0
49	627	44.8	0
49	627	44.9	0
49	627	45	0
49	627	45.1	0
49	627	45.2	0
49	627	45.3	0
49	627	45.4	0
49	627	45.5	0
49	627	45.6	0
49	627	45.7	0
49	627	45.8	0
49	627	45.9	0
49	627	46	0
49	627	46.1	0
49	627	46.2	0
49	627	46.3	0
49	627	46.4	0
49	627	46.5	0
49	627	46.6	0
49	627	46.7	0
49	627	46.8	0
49	627	46.9	0
49	627	47	0
49	627	47.1	0
49	627	47.2	0
49	627	47.3	0
49	627	47.4	0
49	627	47.5	0
49	627	47.6	0
49	627	47.7	0
49	627	47.8	0
49	627	47.9	0
49	627	48	0
49	627	48.1	0
49	627	48.2	0
49	627	48.3	0
49	627	48.4	0
49	627	48.5	0
49	627	48.6	0
49	627	48.7	0
49	627	48.8	0
49	627	48.9	0
49	627	49	0
49	627	49.1	0
49	627	49.2	0
49	627	49.3	0
49	627	49.4	0
49	627	49.5	0
49	627	49.6	0
48	248	20.000076378973	100
48	306	20.000342136919	100
48	327	20.000542174256	100
50	248	20.000076378973	100
26	214	20	128
26	280	20.000231757946	128
27	214	20	128
27	280	20.000231757946	128
57	273	20.000231757946	164
57	317	20.000542123832	164
31	222	20	164
31	288	20.000265757946	164
28	217	20	136
28	283	20.000231757946	136
58	273	20.000231757946	136
58	317	20.000542123832	136
3	2	0.1	0
3	2	0.1	0
3	217	20	0
3	217	20	2
3	220	20	2
3	220	20	0
3	223	20	0
3	223	20	0
3	228	20.000076	0
3	228	20.000076	0
3	263	20.000155757946	0
3	263	20.000155757946	0
3	272	20.000231757946	0
3	272	20.000231757946	0
3	283	20.000231757946	0
3	283	20.000231757946	2
3	286	20.000265757946	2
3	286	20.000265757946	0
3	289	20.000265757946	0
3	289	20.000265757946	0
3	294	20.000341757946	0
3	294	20.000341757946	0
3	312	20.000466123832	0
3	312	20.000466123832	0
3	316	20.000542123832	0
3	316	20.000542123832	0
4	2	0.1	0
4	2	0.1	0
4	223	20	0
4	223	20	0
4	228	20.000076	0
4	228	20.000076	0
4	263	20.000155757946	0
4	263	20.000155757946	0
4	272	20.000231757946	0
4	272	20.000231757946	0
4	289	20.000265757946	0
4	289	20.000265757946	0
4	294	20.000341757946	0
4	294	20.000341757946	0
4	312	20.000466123832	0
4	312	20.000466123832	0
4	316	20.000542123832	0
4	316	20.000542123832	0
5	2	0.1	0
5	2	0.1	0
5	223	20	0
5	223	20	0
5	228	20.000076	0
5	228	20.000076	0
5	263	20.000155757946	0
5	263	20.000155757946	0
5	272	20.000231757946	0
5	272	20.000231757946	0
5	289	20.000265757946	0
5	289	20.000265757946	0
5	294	20.000341757946	0
5	294	20.000341757946	0
5	312	20.000466123832	0
5	312	20.000466123832	0
5	316	20.000542123832	0
5	316	20.000542123832	0
6	2	0.1	0
6	2	0.1	0
6	223	20	0
6	223	20	0
6	228	20.000076	0
6	228	20.000076	0
6	263	20.000155757946	0
6	263	20.000155757946	0
6	272	20.000231757946	0
6	272	20.000231757946	0
6	289	20.000265757946	0
6	289	20.000265757946	0
6	294	20.000341757946	0
6	294	20.000341757946	0
6	312	20.000466123832	0
6	312	20.000466123832	0
6	316	20.000542123832	0
6	316	20.000542123832	0
7	2	0.1	0
7	2	0.1	0
7	223	20	0
7	223	20	0
7	228	20.000076	0
7	228	20.000076	0
7	263	20.000155757946	0
7	263	20.000155757946	0
7	272	20.000231757946	0
7	272	20.000231757946	0
7	289	20.000265757946	0
7	289	20.000265757946	0
7	294	20.000341757946	0
7	294	20.000341757946	0
7	312	20.000466123832	0
7	312	20.000466123832	0
7	316	20.000542123832	0
7	316	20.000542123832	0
1	2	0.1	3
0	2	0.1	0
0	2	0.1	0
0	2	0.1	2
0	223	20	3
0	228	20.000076	2
0	289	20.000265757946	3
0	294	20.000341757946	2
2	2	0.1	1
2	223	20	0
2	228	20.000076	1
2	263	20.000155757946	3
2	272	20.000231757946	1
2	289	20.000265757946	0
2	294	20.000341757946	1
2	312	20.000466123832	3
2	316	20.000542123832	1
32	223	20	1
32	224	20	2
32	227	20.000076	1
32	228	20.000076	0
32	289	20.000265757946	1
32	290	20.000265757946	2
32	293	20.000341757946	1
32	294	20.000341757946	0
29	218	20	108
29	276	20.000231757946	108
29	284	20.000231757946	108
29	320	20.000542123832	108
25	212	20	108
25	278	20.000231757946	108
30	218	20	1
30	276	20.000231757946	2
30	284	20.000231757946	3
30	320	20.000542123832	4
60	277	0.1	0
60	277	0.2	0
60	277	0.3	0
60	277	0.4	0
60	277	0.5	0
60	277	0.6	0
60	277	0.7	0
60	277	0.8	0
60	277	0.9	0
60	277	1	0
60	277	1.1	0
60	277	1.2	0
60	277	1.3	0
60	277	1.4	0
60	277	1.5	0
60	277	1.6	0
60	277	1.7	0
60	277	1.8	0
60	277	1.9	0
60	277	2	0
60	277	2.1	0
60	277	2.2	0
60	277	2.3	0
60	277	2.4	0
60	277	2.5	0
60	277	2.6	0
60	277	2.7	0
60	277	2.8	0
60	277	2.9	0
60	277	3	0
60	277	3.1	0
60	277	3.2	0
60	277	3.3	0
60	277	3.4	0
60	277	3.5	0
60	277	3.6	0
60	277	3.7	0
60	277	3.8	0
60	277	3.9	0
60	277	4	0
60	277	4.1	0
60	277	4.2	0
60	277	4.3	0
60	277	4.4	0
60	277	4.5	0
60	277	4.6	0
60	277	4.7	0
60	277	4.8	0
60	277	4.9	0
60	277	5	0
60	277	5.1	0
60	277	5.2	0
60	277	5.3	0
60	277	5.4	0
60	277	5.5	0
60	277	5.6	0
60	277	5.7	0
60	277	5.8	0
60	277	5.9	0
60	277	6	0
60	277	6.1	0
60	277	6.2	0
60	277	6.3	0
60	277	6.4	0
60	277	6.5	0
60	277	6.6	0
60	277	6.7	0
60	277	6.8	0
60	277	6.9	0
60	277	7	0
60	277	7.1	0
60	277	7.2	0
60	277	7.3	0
60	277	7.4	0
60	277	7.5	0
60	277	7.6	0
60	277	7.7	0
60	277	7.8	0
60	277	7.9	0
60	277	8	0
60	277	8.1	0
60	277	8.2	0
60	277	8.3	0
60	277	8.4	0
60	277	8.5	0
60	277	8.6	0
60	277	8.7	0
60	277	8.8	0
60	277	8.9	0
60	277	9	0
60	277	9.1	0
60	277	9.2	0
60	277	9.3	0
60	277	9.4	0
60	277	9.5	0
60	277	9.6	0
60	277	9.7	0
60	277	9.8	0
60	277	9.9	0
60	277	10	0
60	277	10.1	0
60	277	10.2	0
60	277	10.3	0
60	277	10.4	0
60	277	10.5	0
60	277	10.6	0
60	277	10.7	0
60	277	10.8	0
60	277	10.9	0
60	277	11	0
60	277	11.1	0
60	277	11.2	0
60	277	11.3	0
60	277	11.4	0
60	277	11.5	0
60	277	11.6	0
60	277	11.7	0
60	277	11.8	0
60	277	11.9	0
60	277	12	0
60	277	12.1	0
60	277	12.2	0
60	277	12.3	0
60	277	12.4	0
60	277	12.5	0
60	277	12.6	0
60	277	12.7	0
60	277	12.8	0
60	277	12.9	0
60	277	13	0
60	277	13.1	0
60	277	13.2	0
60	277	13.3	0
60	277	13.4	0
60	277	13.5	0
60	277	13.6	0
60	277	13.7	0
60	277	13.8	0
60	277	13.9	0
60	277	14	0
60	277	14.1	0
60	277	14.2	0
60	277	14.3	0
60	277	14.4	0
60	277	14.5	0
60	277	14.6	0
60	277	14.7	0
60	277	14.8	0
60	277	14.9	0
60	277	15	0
60	277	15.1	0
60	277	15.2	0
60	277	15.3	0
60	277	15.4	0
60	277	15.5	0
60	277	15.6	0
60	277	15.7	0
60	277	15.8	0
60	277	15.9	0
60	277	16	0
60	277	16.1	0
60	277	16.2	0
60	277	16.3	0
60	277	16.4	0
60	277	16.5	0
60	277	16.6	0
60	277	16.7	0
60	277	16.8	0
60	277	16.9	0
60	277	17	0
60	277	17.1	0
60	277	17.2	0
60	277	17.3	0
60	277	17.4	0
60	277	17.5	0
60	277	17.6	0
60	277	17.7	0
60	277	17.8	0
60	277	17.9	0
60	277	18	0
60	277	18.1	0
60	277	18.2	0
60	277	18.3	0
60	277	18.4	0
60	277	18.5	0
60	277	18.6	0
60	277	18.7	0
60	277	18.8	0
60	277	18.9	0
60	277	19	0
60	277	19.1	0
60	277	19.2	0
60	277	19.3	0
60	277	19.4	0
60	277	19.5	0
60	277	19.6	0
60	277	19.7	0
60	277	19.8	0
60	277	19.9	0
60	277	20	0
60	1332	20.1	16000
60	1332	20.2	0
60	1332	20.3	0
60	1332	20.4	0
60	1332	20.5	0
60	1332	20.6	0
60	1332	20.7	0
60	1332	20.8	0
60	1332	20.9	0
60	1332	21	0
60	1332	21.1	0
60	1332	21.2	0
60	1332	21.3	0
60	1332	21.4	0
60	1332	21.5	0
60	1332	21.6	0
60	1332	21.7	0
60	1332	21.8	0
60	1332	21.9	0
60	1332	22	0
60	1332	22.1	0
60	1332	22.2	0
60	1332	22.3	0
60	1332	22.4	0
60	1332	22.5	0
60	1332	22.6	0
60	1332	22.7	0
60	1332	22.8	0
60	1332	22.9	0
60	1332	23	0
60	1332	23.1	0
60	1332	23.2	0
60	1332	23.3	0
60	1332	23.4	0
60	1332	23.5	0
60	1332	23.6	0
60	1332	23.7	0
60	1332	23.8	0
60	1332	23.9	0
60	1332	24	0
60	1332	24.1	0
60	1332	24.2	0
60	1332	24.3	0
60	1332	24.4	0
60	1332	24.5	0
60	1332	24.6	0
60	1332	24.7	0
60	1332	24.8	0
60	1332	24.9	0
60	1332	25	0
60	1332	25.1	0
60	1332	25.2	0
60	1332	25.3	0
60	1332	25.4	0
60	1332	25.5	0
60	1332	25.6	0
60	1332	25.7	0
60	1332	25.8	0
60	1332	25.9	0
60	1332	26	0
60	1332	26.1	0
60	1332	26.2	0
60	1332	26.3	0
60	1332	26.4	0
60	1332	26.5	0
60	1332	26.6	0
60	1332	26.7	0
60	1332	26.8	0
60	1332	26.9	0
60	1332	27	0
60	1332	27.1	0
60	1332	27.2	0
60	1332	27.3	0
60	1332	27.4	0
60	1332	27.5	0
60	1332	27.6	0
60	1332	27.7	0
60	1332	27.8	0
60	1332	27.9	0
60	1332	28	0
60	1332	28.1	0
60	1332	28.2	0
60	1332	28.3	0
60	1332	28.4	0
60	1332	28.5	0
60	1332	28.6	0
60	1332	28.7	0
60	1332	28.8	0
60	1332	28.9	0
60	1332	29	0
60	1332	29.1	0
60	1332	29.2	0
60	1332	29.3	0
60	1332	29.4	0
60	1332	29.5	0
60	1332	29.6	0
60	1332	29.7	0
60	1332	29.8	0
60	1332	29.9	0
60	1332	30	0
60	1332	30.1	0
60	1332	30.2	0
60	1332	30.3	0
60	1332	30.4	0
60	1332	30.5	0
60	1332	30.6	0
60	1332	30.7	0
60	1332	30.8	0
60	1332	30.9	0
60	1332	31	0
60	1332	31.1	0
60	1332	31.2	0
60	1332	31.3	0
60	1332	31.4	0
60	1332	31.5	0
60	1332	31.6	0
60	1332	31.7	0
60	1332	31.8	0
60	1332	31.9	0
60	1332	32	0
60	1332	32.1	0
60	1332	32.2	0
60	1332	32.3	0
60	1332	32.4	0
60	1332	32.5	0
60	1332	32.6	0
60	1332	32.7	0
60	1332	32.8	0
60	1332	32.9	0
60	1332	33	0
60	1332	33.1	0
60	1332	33.2	0
60	1332	33.3	0
60	1332	33.4	0
60	1332	33.5	0
60	1332	33.6	0
60	1332	33.7	0
60	1332	33.8	0
60	1332	33.9	0
60	1332	34	0
60	1332	34.1	0
60	1332	34.2	0
60	1332	34.3	0
60	1332	34.4	0
60	1332	34.5	0
60	1332	34.6	0
60	1332	34.7	0
60	1332	34.8	0
60	1332	34.9	0
60	1332	35	0
60	1332	35.1	0
60	1332	35.2	0
60	1332	35.3	0
60	1332	35.4	0
60	1332	35.5	0
60	1332	35.6	0
60	1332	35.7	0
60	1332	35.8	0
60	1332	35.9	0
60	1332	36	0
60	1332	36.1	0
60	1332	36.2	0
60	1332	36.3	0
60	1332	36.4	0
60	1332	36.5	0
60	1332	36.6	0
60	1332	36.7	0
60	1332	36.8	0
60	1332	36.9	0
60	1332	37	0
60	1332	37.1	0
60	1332	37.2	0
60	1332	37.3	0
60	1332	37.4	0
60	1332	37.5	0
60	1332	37.6	0
60	1332	37.7	0
60	1332	37.8	0
60	1332	37.9	0
60	1332	38	0
60	1332	38.1	0
60	1332	38.2	0
60	1332	38.3	0
60	1332	38.4	0
60	1332	38.5	0
60	1332	38.6	0
60	1332	38.7	0
60	1332	38.8	0
60	1332	38.9	0
60	1332	39	0
60	1332	39.1	0
60	1332	39.2	0
60	1332	39.3	0
60	1332	39.4	0
60	1332	39.5	0
60	1332	39.6	0
60	1332	39.7	0
60	1332	39.8	0
60	1332	39.9	0
60	1332	40	0
60	1332	40.1	0
60	1332	40.2	0
60	1332	40.3	0
60	1332	40.4	0
60	1332	40.5	0
60	1332	40.6	0
60	1332	40.7	0
60	1332	40.8	0
60	1332	40.9	0
60	1332	41	0
60	1332	41.1	0
60	1332	41.2	0
60	1332	41.3	0
60	1332	41.4	0
60	1332	41.5	0
60	1332	41.6	0
60	1332	41.7	0
60	1332	41.8	0
60	1332	41.9	0
60	1332	42	0
60	1332	42.1	0
60	1332	42.2	0
60	1332	42.3	0
60	1332	42.4	0
60	1332	42.5	0
60	1332	42.6	0
60	1332	42.7	0
60	1332	42.8	0
60	1332	42.9	0
60	1332	43	0
60	1332	43.1	0
60	1332	43.2	0
60	1332	43.3	0
60	1332	43.4	0
60	1332	43.5	0
60	1332	43.6	0
60	1332	43.7	0
60	1332	43.8	0
60	1332	43.9	0
60	1332	44	0
60	1332	44.1	0
60	1332	44.2	0
60	1332	44.3	0
60	1332	44.4	0
60	1332	44.5	0
60	1332	44.6	0
60	1332	44.7	0
60	1332	44.8	0
60	1332	44.9	0
60	1332	45	0
60	1332	45.1	0
60	1332	45.2	0
60	1332	45.3	0
60	1332	45.4	0
60	1332	45.5	0
60	1332	45.6	0
60	1332	45.7	0
60	1332	45.8	0
60	1332	45.9	0
60	1332	46	0
60	1332	46.1	0
60	1332	46.2	0
60	1332	46.3	0
60	1332	46.4	0
60	1332	46.5	0
60	1332	46.6	0
60	1332	46.7	0
60	1332	46.8	0
60	1332	46.9	0
60	1332	47	0
60	1332	47.1	0
60	1332	47.2	0
60	1332	47.3	0
60	1332	47.4	0
60	1332	47.5	0
60	1332	47.6	0
60	1332	47.7	0
60	1332	47.8	0
60	1332	47.9	0
60	1332	48	0
60	1332	48.1	0
60	1332	48.2	0
60	1332	48.3	0
60	1332	48.4	0
60	1332	48.5	0
60	1332	48.6	0
60	1332	48.7	0
60	1332	48.8	0
60	1332	48.9	0
60	1332	49	0
60	1332	49.1	0
60	1332	49.2	0
60	1332	49.3	0
60	1332	49.4	0
60	1332	49.5	0
60	1332	49.6	0
60	1332	49.7	0
60	1332	49.8	0
60	1332	49.9	0
60	1332	50	0
60	1332	50.1	0
60	1332	50.2	0
60	1332	50.3	0
60	1332	50.4	0
60	1332	50.5	0
60	1332	50.6	0
60	1332	50.7	0
60	1332	50.8	0
60	1332	50.9	0
60	1332	51	0
60	1332	51.1	0
60	1332	51.2	0
60	1332	51.3	0
60	1332	51.4	0
60	1332	51.5	0
60	1332	51.6	0
60	1332	51.7	0
60	1332	51.8	0
60	1332	51.9	0
60	1332	52	0
60	1332	52.1	0
60	1332	52.2	0
60	1332	52.3	0
60	1332	52.4	0
60	1332	52.5	0
60	1332	52.6	0
60	1332	52.7	0
60	1332	52.8	0
60	1332	52.9	0
60	1332	53	0
60	1332	53.1	0
60	1332	53.2	0
60	1332	53.3	0
60	1332	53.4	0
60	1332	53.5	0
60	1332	53.6	0
60	1332	53.7	0
60	1332	53.8	0
60	1332	53.9	0
60	1332	54	0
60	1332	54.1	0
60	1332	54.2	0
60	1332	54.3	0
60	1332	54.4	0
60	1332	54.5	0
60	1332	54.6	0
60	1332	54.7	0
60	1332	54.8	0
60	1332	54.9	0
60	1332	55	0
60	1332	55.1	0
60	1332	55.2	0
60	1332	55.3	0
60	1332	55.4	0
60	1332	55.5	0
60	1332	55.6	0
60	1332	55.7	0
60	1332	55.8	0
60	1332	55.9	0
60	1332	56	0
60	1332	56.1	0
60	1332	56.2	0
60	1332	56.3	0
60	1332	56.4	0
60	1332	56.5	0
60	1332	56.6	0
60	1332	56.7	0
60	1332	56.8	0
60	1332	56.9	0
60	1332	57	0
60	1332	57.1	0
60	1332	57.2	0
60	1332	57.3	0
60	1332	57.4	0
60	1332	57.5	0
60	1332	57.6	0
60	1332	57.7	0
60	1332	57.8	0
60	1332	57.9	0
60	1332	58	0
60	1332	58.1	0
60	1332	58.2	0
60	1332	58.3	0
60	1332	58.4	0
60	1332	58.5	0
60	1332	58.6	0
60	1332	58.7	0
60	1332	58.8	0
60	1332	58.9	0
60	1332	59	0
60	1332	59.1	0
60	1332	59.2	0
60	1332	59.3	0
60	1332	59.4	0
60	1332	59.5	0
60	1332	59.6	0
60	1332	59.7	0
60	1332	59.8	0
60	1332	59.9	0
60	1332	60	0
60	1332	60.1	0
60	1332	60.2	0
60	1332	60.3	0
60	1332	60.4	0
60	1332	60.5	0
60	1332	60.6	0
60	1332	60.7	0
60	1332	60.8	0
60	1332	60.9	0
60	1332	61	0
60	1332	61.1	0
60	1332	61.2	0
60	1332	61.3	0
60	1332	61.4	0
60	1332	61.5	0
60	1332	61.6	0
60	1332	61.7	0
60	1332	61.8	0
60	1332	61.9	0
60	1332	62	0
60	1332	62.1	0
60	1332	62.2	0
60	1332	62.3	0
60	1332	62.4	0
60	1332	62.5	0
60	1332	62.6	0
60	1332	62.7	0
60	1332	62.8	0
60	1332	62.9	0
60	1332	63	0
60	1332	63.1	0
60	1332	63.2	0
60	1332	63.3	0
60	1332	63.4	0
60	1332	63.5	0
60	1332	63.6	0
60	1332	63.7	0
60	1332	63.8	0
60	1332	63.9	0
60	1332	64	0
60	1332	64.1	0
60	1332	64.2	0
60	1332	64.3	0
60	1332	64.4	0
60	1332	64.5	0
60	1332	64.6	0
60	1332	64.7	0
60	1332	64.8	0
60	1332	64.9	0
60	1332	65	0
60	1332	65.1	0
60	1332	65.2	0
60	1332	65.3	0
60	1332	65.4	0
60	1332	65.5	0
60	1332	65.6	0
60	1332	65.7	0
60	1332	65.8	0
60	1332	65.9	0
60	1332	66	0
60	1332	66.1	0
60	1332	66.2	0
60	1332	66.3	0
60	1332	66.4	0
60	1332	66.5	0
60	1332	66.6	0
60	1332	66.7	0
60	1332	66.8	0
60	1332	66.9	0
60	1332	67	0
60	1332	67.1	0
60	1332	67.2	0
60	1332	67.3	0
60	1332	67.4	0
60	1332	67.5	0
60	1332	67.6	0
60	1332	67.7	0
60	1332	67.8	0
60	1332	67.9	0
60	1332	68	0
60	1332	68.1	0
60	1332	68.2	0
60	1332	68.3	0
60	1332	68.4	0
60	1332	68.5	0
60	1332	68.6	0
60	1332	68.7	0
60	1332	68.8	0
60	1332	68.9	0
60	1332	69	0
60	1332	69.1	0
60	1332	69.2	0
60	1332	69.3	0
60	1332	69.4	0
60	1332	69.5	0
60	1332	69.6	0
60	1332	69.7	0
60	1332	69.8	0
60	1332	69.9	0
60	1332	70	0
60	1332	70.1	0
60	1332	70.2	0
60	1332	70.3	0
60	1332	70.4	0
60	1332	70.5	0
60	1332	70.6	0
60	1332	70.7	0
60	1332	70.8	0
60	1332	70.9	0
60	1332	71	0
60	1332	71.1	0
60	1332	71.2	0
60	1332	71.3	0
60	1332	71.4	0
60	1332	71.5	0
60	1332	71.6	0
60	1332	71.7	0
60	1332	71.8	0
60	1332	71.9	0
60	1332	72	0
60	1332	72.1	0
60	1332	72.2	0
60	1332	72.3	0
60	1332	72.4	0
60	1332	72.5	0
60	1332	72.6	0
60	1332	72.7	0
60	1332	72.8	0
60	1332	72.9	0
60	1332	73	0
60	1332	73.1	0
60	1332	73.2	0
60	1332	73.3	0
60	1332	73.4	0
60	1332	73.5	0
60	1332	73.6	0
60	1332	73.7	0
60	1332	73.8	0
60	1332	73.9	0
60	1332	74	0
60	1332	74.1	0
60	1332	74.2	0
60	1332	74.3	0
60	1332	74.4	0
60	1332	74.5	0
60	1332	74.6	0
60	1332	74.7	0
60	1332	74.8	0
60	1332	74.9	0
60	1332	75	0
60	1332	75.1	0
60	1332	75.2	0
60	1332	75.3	0
60	1332	75.4	0
60	1332	75.5	0
60	1332	75.6	0
60	1332	75.7	0
60	1332	75.8	0
60	1332	75.9	0
60	1332	76	0
60	1332	76.1	0
60	1332	76.2	0
60	1332	76.3	0
60	1332	76.4	0
60	1332	76.5	0
60	1332	76.6	0
60	1332	76.7	0
60	1332	76.8	0
60	1332	76.9	0
60	1332	77	0
60	1332	77.1	0
60	1332	77.2	0
60	1332	77.3	0
60	1332	77.4	0
60	1332	77.5	0
60	1332	77.6	0
60	1332	77.7	0
60	1332	77.8	0
60	1332	77.9	0
60	1332	78	0
60	1332	78.1	0
60	1332	78.2	0
60	1332	78.3	0
60	1332	78.4	0
60	1332	78.5	0
60	1332	78.6	0
60	1332	78.7	0
60	1332	78.8	0
60	1332	78.9	0
60	1332	79	0
60	1332	79.1	0
60	1332	79.2	0
60	1332	79.3	0
60	1332	79.4	0
60	1332	79.5	0
60	1332	79.6	0
60	1332	79.7	0
60	1332	79.8	0
60	1332	79.9	0
60	1332	80	0
60	1332	80.1	0
60	1332	80.2	0
60	1332	80.3	0
60	1332	80.4	0
60	1332	80.5	0
60	1332	80.6	0
60	1332	80.7	0
60	1332	80.8	0
60	1332	80.9	0
60	1332	81	0
60	1332	81.1	0
60	1332	81.2	0
60	1332	81.3	0
60	1332	81.4	0
60	1332	81.5	0
60	1332	81.6	0
60	1332	81.7	0
60	1332	81.8	0
60	1332	81.9	0
60	1332	82	0
60	1332	82.1	0
60	1332	82.2	0
60	1332	82.3	0
60	1332	82.4	0
60	1332	82.5	0
60	1332	82.6	0
60	1332	82.7	0
60	1332	82.8	0
60	1332	82.9	0
60	1332	83	0
60	1332	83.1	0
60	1332	83.2	0
60	1332	83.3	0
60	1332	83.4	0
60	1332	83.5	0
60	1332	83.6	0
60	1332	83.7	0
60	1332	83.8	0
60	1332	83.9	0
60	1332	84	0
60	1332	84.1	0
60	1332	84.2	0
60	1332	84.3	0
60	1332	84.4	0
60	1332	84.5	0
60	1332	84.6	0
60	1332	84.7	0
60	1332	84.8	0
60	1332	84.9	0
60	1332	85	0
60	1332	85.1	0
60	1332	85.2	0
60	1332	85.3	0
60	1332	85.4	0
60	1332	85.5	0
60	1332	85.6	0
60	1332	85.7	0
60	1332	85.8	0
60	1332	85.9	0
60	1332	86	0
60	1332	86.1	0
60	1332	86.2	0
60	1332	86.3	0
60	1332	86.4	0
60	1332	86.5	0
60	1332	86.6	0
60	1332	86.7	0
60	1332	86.8	0
60	1332	86.9	0
60	1332	87	0
60	1332	87.1	0
60	1332	87.2	0
60	1332	87.3	0
60	1332	87.4	0
60	1332	87.5	0
60	1332	87.6	0
60	1332	87.7	0
60	1332	87.8	0
60	1332	87.9	0
60	1332	88	0
60	1332	88.1	0
60	1332	88.2	0
60	1332	88.3	0
60	1332	88.4	0
60	1332	88.5	0
60	1332	88.6	0
60	1332	88.7	0
60	1332	88.8	0
60	1332	88.9	0
60	1332	89	0
60	1332	89.1	0
60	1332	89.2	0
60	1332	89.3	0
60	1332	89.4	0
60	1332	89.5	0
60	1332	89.6	0
60	1332	89.7	0
60	1332	89.8	0
60	1332	89.9	0
60	1332	90	0
60	1332	90.1	0
60	1332	90.2	0
60	1332	90.3	0
60	1332	90.4	0
60	1332	90.5	0
60	1332	90.6	0
60	1332	90.7	0
60	1332	90.8	0
60	1332	90.9	0
60	1332	91	0
60	1332	91.1	0
60	1332	91.2	0
60	1332	91.3	0
60	1332	91.4	0
60	1332	91.5	0
60	1332	91.6	0
60	1332	91.7	0
60	1332	91.8	0
60	1332	91.9	0
60	1332	92	0
60	1332	92.1	0
60	1332	92.2	0
60	1332	92.3	0
60	1332	92.4	0
60	1332	92.5	0
60	1332	92.6	0
60	1332	92.7	0
60	1332	92.8	0
60	1332	92.9	0
60	1332	93	0
60	1332	93.1	0
60	1332	93.2	0
60	1332	93.3	0
60	1332	93.4	0
60	1332	93.5	0
60	1332	93.6	0
60	1332	93.7	0
60	1332	93.8	0
60	1332	93.9	0
60	1332	94	0
60	1332	94.1	0
60	1332	94.2	0
60	1332	94.3	0
60	1332	94.4	0
60	1332	94.5	0
60	1332	94.6	0
60	1332	94.7	0
60	1332	94.8	0
60	1332	94.9	0
60	1332	95	0
60	1332	95.1	0
60	1332	95.2	0
60	1332	95.3	0
60	1332	95.4	0
60	1332	95.5	0
60	1332	95.6	0
60	1332	95.7	0
60	1332	95.8	0
60	1332	95.9	0
60	1332	96	0
60	1332	96.1	0
60	1332	96.2	0
60	1332	96.3	0
60	1332	96.4	0
60	1332	96.5	0
60	1332	96.6	0
60	1332	96.7	0
60	1332	96.8	0
60	1332	96.9	0
60	1332	97	0
60	1332	97.1	0
60	1332	97.2	0
60	1332	97.3	0
60	1332	97.4	0
60	1332	97.5	0
60	1332	97.6	0
60	1332	97.7	0
60	1332	97.8	0
60	1332	97.9	0
60	1332	98	0
60	1332	98.1	0
60	1332	98.2	0
60	1332	98.3	0
60	1332	98.4	0
60	1332	98.5	0
60	1332	98.6	0
60	1332	98.7	0
60	1332	98.8	0
60	1332	98.9	0
60	1332	99	0
60	1332	99.1	0
60	1332	99.2	0
60	1332	99.3	0
60	1332	99.4	0
60	1332	99.5	0
60	1332	99.6	0
60	1332	99.7	0
60	1332	99.8	0
60	1332	99.9	0
60	1332	100	0
60	1332	100.1	0
60	1332	100.2	0
60	1332	100.3	0
60	1332	100.4	0
60	1332	100.5	0
60	1332	100.6	0
60	1332	100.7	0
60	1332	100.8	0
60	1332	100.9	0
60	1332	101	0
60	1332	101.1	0
60	1332	101.2	0
60	1332	101.3	0
60	1332	101.4	0
60	1332	101.5	0
60	1332	101.6	0
60	1332	101.7	0
60	1332	101.8	0
60	1332	101.9	0
60	1332	102	0
60	1332	102.1	0
60	1332	102.2	0
60	1332	102.3	0
60	1332	102.4	0
60	1332	102.5	0
60	1332	102.6	0
60	1332	102.7	0
60	1332	102.8	0
60	1332	102.9	0
60	1332	103	0
60	1332	103.1	0
60	1332	103.2	0
60	1332	103.3	0
60	1332	103.4	0
60	1332	103.5	0
60	1332	103.6	0
60	1332	103.7	0
60	1332	103.8	0
60	1332	103.9	0
60	1332	104	0
60	1332	104.1	0
60	1332	104.2	0
60	1332	104.3	0
60	1332	104.4	0
60	1332	104.5	0
60	1332	104.6	0
60	1332	104.7	0
60	1332	104.8	0
60	1332	104.9	0
60	1332	105	0
60	1332	105.1	0
60	1332	105.2	0
60	1332	105.3	0
60	1332	105.4	0
60	1332	105.5	0
60	1332	105.6	0
60	1332	105.7	0
60	1332	105.8	0
60	1332	105.9	0
60	1332	106	0
60	1332	106.1	0
60	1332	106.2	0
60	1332	106.3	0
60	1332	106.4	0
60	1332	106.5	0
60	1332	106.6	0
60	1332	106.7	0
60	1332	106.8	0
60	1332	106.9	0
60	1332	107	0
60	1332	107.1	0
60	1332	107.2	0
60	1332	107.3	0
60	1332	107.4	0
60	1332	107.5	0
60	1332	107.6	0
60	1332	107.7	0
60	1332	107.8	0
60	1332	107.9	0
60	1332	108	0
60	1332	108.1	0
60	1332	108.2	0
60	1332	108.3	0
60	1332	108.4	0
60	1332	108.5	0
60	1332	108.6	0
60	1332	108.7	0
60	1332	108.8	0
60	1332	108.9	0
60	1332	109	0
60	1332	109.1	0
60	1332	109.2	0
60	1332	109.3	0
60	1332	109.4	0
60	1332	109.5	0
60	1332	109.6	0
60	1332	109.7	0
60	1332	109.8	0
60	1332	109.9	0
60	1332	110	0
60	1332	110.1	0
60	1332	110.2	0
60	1332	110.3	0
60	1332	110.4	0
60	1332	110.5	0
60	1332	110.6	0
60	1332	110.7	0
60	1332	110.8	0
60	1332	110.9	0
60	1332	111	0
60	1332	111.1	0
60	1332	111.2	0
60	1332	111.3	0
60	1332	111.4	0
60	1332	111.5	0
60	1332	111.6	0
60	1332	111.7	0
60	1332	111.8	0
60	1332	111.9	0
60	1332	112	0
60	1332	112.1	0
60	1332	112.2	0
60	1332	112.3	0
60	1332	112.4	0
60	1332	112.5	0
60	1332	112.6	0
60	1332	112.7	0
60	1332	112.8	0
60	1332	112.9	0
60	1332	113	0
60	1332	113.1	0
60	1332	113.2	0
60	1332	113.3	0
60	1332	113.4	0
60	1332	113.5	0
60	1332	113.6	0
60	1332	113.7	0
60	1332	113.8	0
60	1332	113.9	0
60	1332	114	0
60	1332	114.1	0
60	1332	114.2	0
60	1332	114.3	0
60	1332	114.4	0
60	1332	114.5	0
60	1332	114.6	0
60	1332	114.7	0
60	1332	114.8	0
60	1332	114.9	0
60	1332	115	0
60	1332	115.1	0
60	1332	115.2	0
60	1332	115.3	0
60	1332	115.4	0
60	1332	115.5	0
60	1332	115.6	0
60	1332	115.7	0
60	1332	115.8	0
60	1332	115.9	0
60	1332	116	0
60	1332	116.1	0
60	1332	116.2	0
60	1332	116.3	0
60	1332	116.4	0
60	1332	116.5	0
60	1332	116.6	0
60	1332	116.7	0
60	1332	116.8	0
60	1332	116.9	0
60	1332	117	0
60	1332	117.1	0
60	1332	117.2	0
60	1332	117.3	0
60	1332	117.4	0
60	1332	117.5	0
60	1332	117.6	0
60	1332	117.7	0
60	1332	117.8	0
60	1332	117.9	0
60	1332	118	0
60	1332	118.1	0
60	1332	118.2	0
60	1332	118.3	0
60	1332	118.4	0
60	1332	118.5	0
60	1332	118.6	0
60	1332	118.7	0
60	1332	118.8	0
60	1332	118.9	0
60	1332	119	0
60	1332	119.1	0
60	1332	119.2	0
60	1332	119.3	0
60	1332	119.4	0
60	1332	119.5	0
60	1332	119.6	0
60	1332	119.7	0
60	1332	119.8	0
60	1332	119.9	0
60	1332	120	0
59	277	20.000231757946	100
59	321	20.000542123832	100
24	210	20	100
24	277	20.000231757946	100

