version 2
run General-17-20200211-12:44:43-39082
attr configname General
attr datetime 20200211-12:44:43
attr experiment General
attr inifile omnetpp.ini
attr iterationvars $0=17
attr iterationvarsf 17-
attr measurement $0=17
attr network scenario
attr processid 39082
attr repetition 0
attr replication #0
attr resultdir veins-runall-output
attr runnumber 17
attr seedset 17
param *.playgroundSizeX 10672m
param *.playgroundSizeY 7105m
param *.playgroundSizeZ 10000m
param *.annotations.draw false
param *.world.useTorus false
param *.world.use2D false
param *.manager.updateInterval 1s
param *.manager.host "\"localhost\""
param *.manager.port 9999
param *.manager.moduleType "\"org.car2x.veins.nodes.Car\""
param *.manager.moduleName "\"node\""
param *.manager.moduleDisplayString "\"\""
param *.manager.autoShutdown true
param *.manager.margin 25
param *.manager.launchConfig "xmldoc(\"sumo-launchd.launch.xml\")"
param *.manager.trafficLightModuleType "\"org.car2x.veins.nodes.TrafficLight\""
param *.manager.trafficLightModuleName "\"trafficLight\""
param *.manager.trafficLightModuleDisplayString default
param *.manager.trafficLightFilter "\"10\""
param *.manager.ignoreGuiCommands true
param *.trafficLight[*].mobility.x 0
param *.trafficLight[*].mobility.y 0
param *.trafficLight[*].mobility.z 3
param *.trafficLight[*].applType "\"org.car2x.veins.subprojects.veins_testsims.traci.TraCITrafficLightApp\""
param *.trafficLight[*].logicType "\"org.car2x.veins.subprojects.veins_testsims.traci.TraCITrafficLightTestLogic\""
param *.trafficLight[*].appl.headerLength "80 bit"
param *.trafficLight[*].appl.sendBeacons false
param *.trafficLight[*].appl.dataOnSch true
param *.connectionManager.sendDirect true
param *.connectionManager.maxInterfDist 2600m
param *.connectionManager.drawMaxIntfDist false
param *.**.nic.mac1609_4.useServiceChannel false
param *.**.nic.mac1609_4.txPower 20mW
param *.**.nic.mac1609_4.bitrate 18Mbps
param *.**.nic.phy80211p.minPowerLevel -110dBm
param *.**.nic.phy80211p.useNoiseFloor true
param *.**.nic.phy80211p.noiseFloor -98dBm
param *.**.nic.phy80211p.decider "xmldoc(\"config.xml\")"
param *.**.nic.phy80211p.analogueModels "xmldoc(\"config.xml\")"
param *.**.nic.phy80211p.usePropagationDelay true
param *.node[*].applType "\"org.car2x.veins.subprojects.veins_testsims.traci.TraCITestApp\""
param *.node[0].appl.testNumber 17
param *.node[*].appl.testNumber -1
param *.node[*].veinsmobilityType "\"org.car2x.veins.modules.mobility.traci.TraCIMobility\""
param *.node[*].veinsmobility.x 0
param *.node[*].veinsmobility.y 0
param *.node[*].veinsmobility.z 1.895
param *.node[*].veinsmobility.accidentCount 0
param *.node[*].veinsmobility.setHostSpeed true

vector 0 scenario.node[0].veinsmobility posx ETV
vector 1 scenario.node[0].veinsmobility posy ETV
vector 2 scenario.node[0].veinsmobility speed ETV
vector 3 scenario.node[0].veinsmobility acceleration ETV
vector 4 scenario.node[0].veinsmobility co2emission ETV
vector 5 scenario.node[1].veinsmobility posx ETV
vector 6 scenario.node[1].veinsmobility posy ETV
vector 7 scenario.node[1].veinsmobility speed ETV
vector 8 scenario.node[1].veinsmobility acceleration ETV
vector 9 scenario.node[1].veinsmobility co2emission ETV
vector 10 scenario.node[2].veinsmobility posx ETV
vector 11 scenario.node[2].veinsmobility posy ETV
vector 12 scenario.node[2].veinsmobility speed ETV
vector 13 scenario.node[2].veinsmobility acceleration ETV
vector 14 scenario.node[2].veinsmobility co2emission ETV
vector 15 scenario.node[3].veinsmobility posx ETV
vector 16 scenario.node[3].veinsmobility posy ETV
vector 17 scenario.node[3].veinsmobility speed ETV
vector 18 scenario.node[3].veinsmobility acceleration ETV
vector 19 scenario.node[3].veinsmobility co2emission ETV
vector 20 scenario.node[4].veinsmobility posx ETV
vector 21 scenario.node[4].veinsmobility posy ETV
vector 22 scenario.node[4].veinsmobility speed ETV
vector 23 scenario.node[4].veinsmobility acceleration ETV
vector 24 scenario.node[4].veinsmobility co2emission ETV
vector 25 scenario.node[5].veinsmobility posx ETV
vector 26 scenario.node[5].veinsmobility posy ETV
vector 27 scenario.node[5].veinsmobility speed ETV
vector 28 scenario.node[5].veinsmobility acceleration ETV
vector 29 scenario.node[5].veinsmobility co2emission ETV
vector 30 scenario.node[6].veinsmobility posx ETV
vector 31 scenario.node[6].veinsmobility posy ETV
vector 32 scenario.node[6].veinsmobility speed ETV
vector 33 scenario.node[6].veinsmobility acceleration ETV
vector 34 scenario.node[6].veinsmobility co2emission ETV
vector 35 scenario.node[7].veinsmobility posx ETV
vector 36 scenario.node[7].veinsmobility posy ETV
vector 37 scenario.node[7].veinsmobility speed ETV
vector 38 scenario.node[7].veinsmobility acceleration ETV
vector 39 scenario.node[7].veinsmobility co2emission ETV
vector 40 scenario.node[8].veinsmobility posx ETV
vector 41 scenario.node[8].veinsmobility posy ETV
vector 42 scenario.node[8].veinsmobility speed ETV
vector 43 scenario.node[8].veinsmobility acceleration ETV
vector 44 scenario.node[8].veinsmobility co2emission ETV
vector 45 scenario.node[9].veinsmobility posx ETV
vector 46 scenario.node[9].veinsmobility posy ETV
vector 47 scenario.node[9].veinsmobility speed ETV
vector 48 scenario.node[9].veinsmobility acceleration ETV
vector 49 scenario.node[9].veinsmobility co2emission ETV
4	6	3	9.0549579066719
4	8	4	8.4988778463559
4	10	5	0.046631045706452
4	12	6	1.346729538445
4	14	7	6.8698411864162
4	16	8	6.3845112230278
4	18	9	10.609141425341
4	20	10	-0.62763525208726
4	22	11	9.4819023524904
4	24	12	4.4429678264677
4	26	13	-0.10558168561576
4	28	14	11.802268687823
4	30	15	5.4601311759271
4	32	16	0.92545498520847
4	34	17	5.8794977887355
4	36	18	6.1640655057657
4	38	19	3.4203111609862
4	40	20	10.69111669374
4	42	21	0.973
4	44	22	0.973
4	46	23	0.973
4	48	24	0.973
4	50	25	1.1118020061917
4	52	26	0.973
4	54	27	0.973
4	56	28	0.973
4	58	29	0.973
4	60	30	0.973
4	62	31	0.973
4	64	32	0.973
4	66	33	0.973
4	68	34	0.973
4	70	35	0.973
4	72	36	0.973
4	74	37	0.973
4	76	38	0.973
4	78	39	0.973
4	80	40	0.973
4	82	41	0.973
4	84	42	0.973
4	86	43	0.973
4	88	44	0.973
4	90	45	0.973
4	92	46	0.973
4	94	47	0.973
4	96	48	0.973
4	98	49	0.973
4	100	50	0.973
4	102	51	0.973
4	104	52	0.973
4	106	53	0.973
4	108	54	0.973
4	110	55	0.973
4	112	56	3.2943849358149
4	114	57	4.1943539534412
4	116	58	6.8492483258389
4	118	59	6.710655145616
4	120	60	9.0971440991333
4	122	61	9.7228999079442
4	124	62	11.7683802021
4	126	63	10.096374092804
4	128	64	18.586182727922
4	130	65	17.748320886918
4	132	66	18.274584410871
4	134	67	20.13777124263
4	136	68	22.047733684385
4	138	69	1.9506600438733
4	140	70	1.8459858356143
4	142	71	10.07131871608
4	144	72	6.117858727332
4	146	73	4.0683323653584
4	148	74	3.9588800167968
4	150	75	2.7343054276622
4	152	76	11.740415573078
3	6	3	0.52293095912319
3	8	4	0.42359790159389
3	10	5	-0.69673392002005
3	12	6	-0.50619142258074
3	14	7	0.25186112383381
3	16	8	0.1763841798529
3	18	9	0.71072384552099
3	20	10	-0.7868874395499
3	22	11	0.57219625858124
3	24	12	-0.10559434723109
3	26	13	-0.71066696522757
3	28	14	0.88155823771376
3	30	15	0.024184075067751
3	32	16	-0.57467688911129
3	34	17	0.10187313426286
3	36	18	0.13466655404773
3	38	19	-0.23182501236442
3	40	20	0.72010953607969
3	42	21	-7.1449592281511
3	44	22	-8.2672994659538
3	46	23	-9.81
3	48	24	-5.6293934740539
3	50	25	-0.013281768522348
3	52	26	-0.040009692107558
3	54	27	0
3	56	28	0
3	58	29	0
3	60	30	0
3	62	31	0
3	64	32	0
3	66	33	0
3	68	34	0
3	70	35	0
3	72	36	0
3	74	37	0
3	76	38	0
3	78	39	0
3	80	40	0
3	82	41	0
3	84	42	0
3	86	43	0
3	88	44	0
3	90	45	0
3	92	46	0
3	94	47	0
3	96	48	0
3	98	49	0
3	100	50	0
3	102	51	0
3	104	52	0
3	106	53	0
3	108	54	0
3	110	55	0
3	112	56	2.9106316535035
3	114	57	2.2632027121726
3	116	58	2.7725160639966
3	118	59	2.0792864622781
3	120	60	2.4064154983498
3	122	61	2.1662503498374
3	124	62	2.3064586990513
3	126	63	1.6744815583806
3	128	64	2.9844387627672
3	130	65	2.4533084607683
3	132	66	2.2471881068777
3	134	67	2.2563400526997
3	136	68	2.2592683061658
3	138	69	-0.43808835558593
3	140	70	-0.44074191909749
3	142	71	0.65862785512581
3	144	72	0.11651006375905
3	146	73	-0.15504761959892
3	148	74	-0.16400811611675
3	150	75	-0.32156901131384
3	152	76	0.86154521314893
2	4	2	29.997433819196
2	6	3	30.520364778319
2	8	4	30.943962679913
2	10	5	30.247228759893
2	12	6	29.741037337312
2	14	7	29.992898461146
2	16	8	30.169282640999
2	18	9	30.88000648652
2	20	10	30.09311904697
2	22	11	30.665315305551
2	24	12	30.55972095832
2	26	13	29.849053993093
2	28	14	30.730612230806
2	30	15	30.754796305874
2	32	16	30.180119416763
2	34	17	30.281992551026
2	36	18	30.416659105073
2	38	19	30.184834092709
2	40	20	30.904943628789
2	42	21	23.759984400638
2	44	22	15.492684934684
2	46	23	5.6826849346838
2	48	24	0.053291460629906
2	50	25	0.040009692107558
2	52	26	0
2	54	27	0
2	56	28	0
2	58	29	0
2	60	30	0
2	62	31	0
2	64	32	0
2	66	33	0
2	68	34	0
2	70	35	0
2	72	36	0
2	74	37	0
2	76	38	0
2	78	39	0
2	80	40	0
2	82	41	0
2	84	42	0
2	86	43	0
2	88	44	0
2	90	45	0
2	92	46	0
2	94	47	0
2	96	48	0
2	98	49	0
2	100	50	0
2	102	51	0
2	104	52	0
2	106	53	0
2	108	54	0
2	110	55	0
2	112	56	2.9106316535035
2	114	57	5.1738343656762
2	116	58	7.9463504296727
2	118	59	10.025636891951
2	120	60	12.432052390301
2	122	61	14.598302740138
2	124	62	16.904761439189
2	126	63	18.57924299757
2	128	64	21.563681760337
2	130	65	24.016990221106
2	132	66	26.264178327983
2	134	67	28.520518380683
2	136	68	30.779786686849
2	138	69	30.341698331263
2	140	70	29.900956412165
2	142	71	30.559584267291
2	144	72	30.67609433105
2	146	73	30.521046711451
2	148	74	30.357038595334
2	150	75	30.035469584021
2	152	76	30.89701479717
1	2	1	76.65
1	4	2	76.65
1	6	3	76.65
1	8	4	76.65
1	10	5	76.65
1	12	6	76.65
1	14	7	76.65
1	16	8	76.65
1	18	9	76.65
1	20	10	76.65
1	22	11	76.65
1	24	12	76.65
1	26	13	76.65
1	28	14	76.65
1	30	15	76.65
1	32	16	76.65
1	34	17	76.65
1	36	18	76.65
1	38	19	76.65
1	40	20	76.65
1	42	21	76.65
1	44	22	76.65
1	46	23	76.65
1	48	24	76.65
1	50	25	76.65
1	52	26	76.65
1	54	27	76.65
1	56	28	76.65
1	58	29	76.65
1	60	30	76.65
1	62	31	76.65
1	64	32	76.65
1	66	33	76.65
1	68	34	76.65
1	70	35	76.65
1	72	36	76.65
1	74	37	76.65
1	76	38	76.65
1	78	39	76.65
1	80	40	76.65
1	82	41	76.65
1	84	42	76.65
1	86	43	76.65
1	88	44	76.65
1	90	45	76.65
1	92	46	76.65
1	94	47	76.65
1	96	48	76.65
1	98	49	76.65
1	100	50	76.65
1	102	51	76.65
1	104	52	76.65
1	106	53	76.65
1	108	54	76.65
1	110	55	76.65
1	112	56	76.65
1	114	57	76.65
1	116	58	76.65
1	118	59	76.65
1	120	60	76.65
1	122	61	76.65
1	124	62	76.65
1	126	63	76.65
1	128	64	76.65
1	130	65	76.65
1	132	66	76.65
1	134	67	76.65
1	136	68	76.65
1	138	69	76.65
1	140	70	76.65
1	142	71	76.65
1	144	72	76.65
1	146	73	76.65
1	148	74	76.65
1	150	75	76.65
1	152	76	76.65
0	2	1	27.6
0	4	2	27.6
0	6	3	57.597433819196
0	8	4	88.117798597515
0	10	5	119.06176127743
0	12	6	149.30899003732
0	14	7	179.05002737463
0	16	8	209.04292583578
0	18	9	239.21220847678
0	20	10	270.0922149633
0	22	11	300.18533401027
0	24	12	330.85064931582
0	26	13	361.41037027414
0	28	14	391.25942426723
0	30	15	421.99003649804
0	32	16	452.74483280391
0	34	17	482.92495222068
0	36	18	513.2069447717
0	38	19	543.62360387678
0	40	20	573.80843796948
0	42	21	604.71338159827
0	44	22	628.47336599891
0	46	23	643.9660509336
0	48	24	649.64873586828
0	50	25	649.70202732891
0	52	26	649.74203702102
0	54	27	649.74203702102
0	56	28	649.74203702102
0	58	29	649.74203702102
0	60	30	649.74203702102
0	62	31	649.74203702102
0	64	32	649.74203702102
0	66	33	649.74203702102
0	68	34	649.74203702102
0	70	35	649.74203702102
0	72	36	649.74203702102
0	74	37	649.74203702102
0	76	38	649.74203702102
0	78	39	649.74203702102
0	80	40	649.74203702102
0	82	41	649.74203702102
0	84	42	649.74203702102
0	86	43	649.74203702102
0	88	44	649.74203702102
0	90	45	649.74203702102
0	92	46	649.74203702102
0	94	47	649.74203702102
0	96	48	649.74203702102
0	98	49	649.74203702102
0	100	50	649.74203702102
0	102	51	649.74203702102
0	104	52	649.74203702102
0	106	53	649.74203702102
0	108	54	649.74203702102
0	110	55	649.74203702102
0	112	56	649.74203702102
0	114	57	652.65266867452
0	116	58	657.8265030402
0	118	59	665.77285346987
0	120	60	675.79849036182
0	122	61	688.23054275212
0	124	62	702.82884549226
0	126	63	719.73360693145
0	128	64	738.31284992902
0	130	65	759.87653168935
0	132	66	783.89352191046
0	134	67	810.15770023844
0	136	68	838.67821861913
0	138	69	869.45800530598
0	140	70	899.79970363724
0	142	71	929.7006600494
0	144	72	960.26024431669
0	146	73	990.93633864774
0	148	74	1021.4573853592
0	150	75	1051.8144239545
0	152	76	1081.8498935386
9	16	8	0.973
9	18	9	7.571291812718
9	20	10	5.5542453148332
9	22	11	1.4446197809318
9	24	12	8.6315642222256
9	26	13	9.2060826741665
9	28	14	0.973
9	30	15	5.2489198220867
9	32	16	7.1687562163273
9	34	17	0.973
9	36	18	6.9480686769379
9	38	19	8.8579526330423
9	40	20	1.393928211888
9	42	21	8.2398834073704
9	44	22	7.6306723667609
9	46	23	4.4593470779989
9	48	24	4.5196711937101
9	50	25	0.973
9	52	26	10.368813933513
9	54	27	0.973
9	56	28	0.973
9	58	29	0.973
9	60	30	0.973
9	62	31	1.1210012465246
9	64	32	0.973
9	66	33	1.1101396787122
9	68	34	1.1100390589483
9	70	35	1.1100073570639
9	72	36	0.973
9	74	37	0.973
9	76	38	0.973
9	78	39	0.973
9	80	40	0.973
9	82	41	0.973
9	84	42	0.973
9	86	43	0.973
9	88	44	0.973
9	90	45	0.973
9	92	46	0.973
9	94	47	0.973
9	96	48	0.973
9	98	49	0.973
9	100	50	0.973
9	102	51	0.973
9	104	52	0.973
9	106	53	0.973
9	108	54	0.973
9	110	55	1.1100049738518
9	112	56	0.973
9	114	57	2.7351956220559
9	116	58	3.9987782520411
9	118	59	4.5195961440503
9	120	60	7.1706858406913
9	122	61	7.4280624152545
9	124	62	6.6589985688259
9	126	63	12.420743708326
9	128	64	12.308590693793
9	130	65	10.876795385551
9	132	66	14.944584288896
9	134	67	21.564936055065
9	136	68	20.933608791992
9	138	69	17.36385115238
9	140	70	0.973
9	142	71	11.022284358618
9	144	72	1.8064529814015
9	146	73	4.6879455489969
9	148	74	9.6810168363133
9	150	75	-0.49542952425149
9	152	76	10.083020169968
9	154	77	0.6326020009668
9	156	78	-0.045478732054493
8	16	8	-0.89912858465686
8	18	9	0.44805449608248
8	20	10	0.14435671095271
8	22	11	-0.4477252420038
8	24	12	0.58708500838839
8	26	13	0.63133426685818
8	28	14	-1.0425417660736
8	30	15	0.1067264751764
8	32	16	0.37020253634546
8	34	17	-0.83901198150124
8	36	18	0.36283537116833
8	38	19	0.6079941970529
8	40	20	-0.46267451299354
8	42	21	0.51538926071953
8	44	22	0.40517952258233
8	46	23	-0.0453104210319
8	48	24	-0.035315734567121
8	50	25	-1.1524176645325
8	52	26	0.82356644805986
8	54	27	-2.5954126293353
8	56	28	-9.81
8	58	29	-9.81
8	60	30	-6.1951633800942
8	62	31	-0.021548029647003
8	64	32	-0.24622305062115
8	66	33	-0.0063153690225734
8	68	34	-0.0021712677788677
8	70	35	-0.00066554047857214
8	72	36	-0.00015301839440106
8	74	37	0
8	76	38	0
8	78	39	0
8	80	40	0
8	82	41	0
8	84	42	0
8	86	43	0
8	88	44	0
8	90	45	0
8	92	46	0
8	94	47	0
8	96	48	0
8	98	49	0
8	100	50	0
8	102	51	0
8	104	52	0
8	106	53	0
8	108	54	0
8	110	55	0.00010305332422224
8	112	56	-0.00010305332422224
8	114	57	2.4975304056621
8	116	58	2.2931235510623
8	118	59	1.8978974298807
8	120	60	2.5033438849496
8	122	61	2.0774639470037
8	124	62	1.5351704737404
8	126	63	2.7287630627397
8	128	64	2.285836690804
8	130	65	1.7267734603956
8	132	66	2.2513044514926
8	134	67	2.9886853499338
8	136	68	2.5256635320839
8	138	69	1.7924701447153
8	140	70	-1.2900977195241
8	142	71	0.91510820807889
8	144	72	-0.4056365552824
8	146	73	0.015864062821493
8	148	74	0.70121439127252
8	150	75	-0.74252155283466
8	152	76	0.75764925673138
8	154	77	-0.58053530787583
8	156	78	-0.66896398121025
7	14	7	28.609053899346
7	16	8	27.709925314689
7	18	9	28.157979810772
7	20	10	28.302336521724
7	22	11	27.854611279721
7	24	12	28.441696288109
7	26	13	29.073030554967
7	28	14	28.030488788894
7	30	15	28.13721526407
7	32	16	28.507417800415
7	34	17	27.668405818914
7	36	18	28.031241190083
7	38	19	28.639235387135
7	40	20	28.176560874142
7	42	21	28.691950134861
7	44	22	29.097129657444
7	46	23	29.051819236412
7	48	24	29.016503501845
7	50	25	27.864085837312
7	52	26	28.687652285372
7	54	27	26.092239656037
7	56	28	16.282239656037
7	58	29	6.4722396560368
7	60	30	0.27707627594257
7	62	31	0.25552824629556
7	64	32	0.0093051956744143
7	66	33	0.0029898266518409
7	68	34	0.0008185588729732
7	70	35	0.00015301839440106
7	72	36	0
7	74	37	0
7	76	38	0
7	78	39	0
7	80	40	0
7	82	41	0
7	84	42	0
7	86	43	0
7	88	44	0
7	90	45	0
7	92	46	0
7	94	47	0
7	96	48	0
7	98	49	0
7	100	50	0
7	102	51	0
7	104	52	0
7	106	53	0
7	108	54	0
7	110	55	0.00010305332422224
7	112	56	0
7	114	57	2.4975304056621
7	116	58	4.7906539567244
7	118	59	6.6885513866051
7	120	60	9.1918952715547
7	122	61	11.269359218558
7	124	62	12.804529692299
7	126	63	15.533292755039
7	128	64	17.819129445843
7	130	65	19.545902906238
7	132	66	21.797207357731
7	134	67	24.785892707665
7	136	68	27.311556239748
7	138	69	29.104026384464
7	140	70	27.81392866494
7	142	71	28.729036873019
7	144	72	28.323400317736
7	146	73	28.339264380558
7	148	74	29.04047877183
7	150	75	28.297957218995
7	152	76	29.055606475727
7	154	77	28.475071167851
7	156	78	27.806107186641
6	12	6	76.65
6	14	7	76.65
6	16	8	76.65
6	18	9	76.65
6	20	10	76.65
6	22	11	76.65
6	24	12	76.65
6	26	13	76.65
6	28	14	76.65
6	30	15	76.65
6	32	16	76.65
6	34	17	76.65
6	36	18	76.65
6	38	19	76.65
6	40	20	76.65
6	42	21	76.65
6	44	22	76.65
6	46	23	76.65
6	48	24	76.65
6	50	25	76.65
6	52	26	76.65
6	54	27	76.65
6	56	28	76.65
6	58	29	76.65
6	60	30	76.65
6	62	31	76.65
6	64	32	76.65
6	66	33	76.65
6	68	34	76.65
6	70	35	76.65
6	72	36	76.65
6	74	37	76.65
6	76	38	76.65
6	78	39	76.65
6	80	40	76.65
6	82	41	76.65
6	84	42	76.65
6	86	43	76.65
6	88	44	76.65
6	90	45	76.65
6	92	46	76.65
6	94	47	76.65
6	96	48	76.65
6	98	49	76.65
6	100	50	76.65
6	102	51	76.65
6	104	52	76.65
6	106	53	76.65
6	108	54	76.65
6	110	55	76.65
6	112	56	76.65
6	114	57	76.65
6	116	58	76.65
6	118	59	76.65
6	120	60	76.65
6	122	61	76.65
6	124	62	76.65
6	126	63	76.65
6	128	64	76.65
6	130	65	76.65
6	132	66	76.65
6	134	67	76.65
6	136	68	76.65
6	138	69	76.65
6	140	70	76.65
6	142	71	76.65
6	144	72	76.65
6	146	73	76.65
6	148	74	76.65
6	150	75	76.65
6	152	76	76.65
6	154	77	76.65
6	156	78	76.65
5	12	6	27.6
5	14	7	27.6
5	16	8	56.209053899346
5	18	9	83.918979214035
5	20	10	112.07695902481
5	22	11	140.37929554653
5	24	12	168.23390682625
5	26	13	196.67560311436
5	28	14	225.74863366933
5	30	15	253.77912245822
5	32	16	281.91633772229
5	34	17	310.42375552271
5	36	18	338.09216134162
5	38	19	366.1234025317
5	40	20	394.76263791884
5	42	21	422.93919879298
5	44	22	451.63114892784
5	46	23	480.72827858529
5	48	24	509.7800978217
5	50	25	538.79660132354
5	52	26	566.66068716086
5	54	27	595.34833944623
5	56	28	621.44057910226
5	58	29	637.7228187583
5	60	30	644.19505841434
5	62	31	644.47213469028
5	64	32	644.72766293658
5	66	33	644.73696813225
5	68	34	644.7399579589
5	70	35	644.74077651778
5	72	36	644.74092953617
5	74	37	644.74092953617
5	76	38	644.74092953617
5	78	39	644.74092953617
5	80	40	644.74092953617
5	82	41	644.74092953617
5	84	42	644.74092953617
5	86	43	644.74092953617
5	88	44	644.74092953617
5	90	45	644.74092953617
5	92	46	644.74092953617
5	94	47	644.74092953617
5	96	48	644.74092953617
5	98	49	644.74092953617
5	100	50	644.74092953617
5	102	51	644.74092953617
5	104	52	644.74092953617
5	106	53	644.74092953617
5	108	54	644.74092953617
5	110	55	644.74092953617
5	112	56	644.74103258949
5	114	57	644.74103258949
5	116	58	647.23856299516
5	118	59	652.02921695188
5	120	60	658.71776833849
5	122	61	667.90966361004
5	124	62	679.1790228286
5	126	63	691.9835525209
5	128	64	707.51684527594
5	130	65	725.33597472178
5	132	66	744.88187762802
5	134	67	766.67908498575
5	136	68	791.46497769341
5	138	69	818.77653393316
5	140	70	847.88056031762
5	142	71	875.69448898256
5	144	72	904.42352585558
5	146	73	932.74692617332
5	148	74	961.08619055388
5	150	75	990.12666932571
5	152	76	1018.4246265447
5	154	77	1047.4802330204
5	156	78	1075.9553041883
14	26	13	0.973
14	28	14	4.3729879805779
14	30	15	8.8381248682011
14	32	16	6.1443901092633
14	34	17	0.15586116913647
14	36	18	6.3080158955641
14	38	19	4.6751250531466
14	40	20	7.0759005603274
14	42	21	0.47102006867537
14	44	22	5.7960442460378
14	46	23	3.3909990412772
14	48	24	3.6091145658986
14	50	25	6.1730644351122
14	52	26	2.5518715447115
14	54	27	6.6825782648109
14	56	28	1.3956135536307
14	58	29	11.453308106654
14	60	30	0.973
14	62	31	9.2614485980119
14	64	32	3.8380167674443
14	66	33	0.973
14	68	34	0.973
14	70	35	0.973
14	72	36	0.973
14	74	37	0.973
14	76	38	1.1105421952869
14	78	39	1.11021646627
14	80	40	1.1101029028642
14	82	41	1.1100409859317
14	84	42	1.1100113183984
14	86	43	0.973
14	88	44	0.973
14	90	45	0.973
14	92	46	0.973
14	94	47	0.973
14	96	48	0.973
14	98	49	0.973
14	100	50	0.973
14	102	51	0.973
14	104	52	0.973
14	106	53	0.973
14	108	54	0.973
14	110	55	0.973
14	112	56	0.973
14	114	57	0.973
14	116	58	1.7194299658231
14	118	59	3.9221095379678
14	120	60	4.704142109173
14	122	61	5.9965102923148
14	124	62	6.7384022551726
14	126	63	8.9077963432874
14	128	64	11.886257008856
14	130	65	10.25313794783
14	132	66	11.83601309624
14	134	67	18.004865006504
14	136	68	20.368631919431
14	138	69	22.039287913638
14	140	70	7.9629519832056
14	142	71	8.0377369924398
14	144	72	0.973
14	146	73	11.976162339161
14	148	74	-0.16873889845152
14	150	75	6.2086838000316
14	152	76	6.3365956176499
14	154	77	2.2594736756806
14	156	78	5.7405172556759
14	158	79	0.973
14	160	80	4.8699131565925
13	26	13	-1.0121632965747
13	28	14	0.014476087060757
13	30	15	0.6544062285684
13	32	16	0.24133810924832
13	34	17	-0.63323444430716
13	36	18	0.28271973493975
13	38	19	0.036917676916346
13	40	20	0.3756853613304
13	42	21	-0.58749160193838
13	44	22	0.20473181270063
13	46	23	-0.14969052001834
13	48	24	-0.11298538965639
13	50	25	0.26115354057401
13	52	26	-0.27218583819922
13	54	27	0.33413319883402
13	56	28	-0.44422700407449
13	58	29	1.0031779732089
13	60	30	-1.2539594013942
13	62	31	0.7172758692177
13	64	32	-0.087725587072782
13	66	33	-9.1024838050923
13	68	34	-8.5330356941942
13	70	35	-8.7319892448644
13	72	36	-1.0765288400348
13	74	37	-0.26010808432293
13	76	38	-0.040025992808946
13	78	39	-0.0093418304731048
13	80	40	-0.0025463234152693
13	82	41	-0.0013054265861936
13	84	42	-0.00061984719384708
13	86	43	-0.00023535564936605
13	88	44	0
13	90	45	0
13	92	46	0
13	94	47	0
13	96	48	0
13	98	49	0
13	100	50	0
13	102	51	0
13	104	52	0
13	106	53	0
13	108	54	0
13	110	55	0
13	112	56	0
13	114	57	0
13	116	58	1.4928690909603
13	118	59	2.6261596265249
13	120	60	2.1598860077793
13	122	61	2.1717849959387
13	124	62	1.9940157299861
13	126	63	2.2804435214493
13	128	64	2.6229177278001
13	130	65	1.8871744775679
13	132	66	1.9751552551752
13	134	67	2.7992557006655
13	136	68	2.7868333618389
13	138	69	2.6721619886812
13	140	70	0.51576767011626
13	142	71	0.49811086559203
13	144	72	-0.95575129275676
13	146	73	1.0635402618209
13	148	74	-0.68874329735991
13	150	75	0.24768056231551
13	152	76	0.25413331319578
13	154	77	-0.33230139012448
13	156	78	0.17427008715458
13	158	79	-0.99573981051799
13	160	80	0.084213377907872
12	24	12	28.185867935272
12	26	13	27.173704638697
12	28	14	27.188180725758
12	30	15	27.842586954326
12	32	16	28.083925063575
12	34	17	27.450690619267
12	36	18	27.733410354207
12	38	19	27.770328031123
12	40	20	28.146013392454
12	42	21	27.558521790515
12	44	22	27.763253603216
12	46	23	27.613563083198
12	48	24	27.500577693541
12	50	25	27.761731234115
12	52	26	27.489545395916
12	54	27	27.82367859475
12	56	28	27.379451590676
12	58	29	28.382629563885
12	60	30	27.12867016249
12	62	31	27.845946031708
12	64	32	27.758220444635
12	66	33	18.655736639543
12	68	34	10.122700945349
12	70	35	1.3907117004845
12	72	36	0.31418286044966
12	74	37	0.054074776126727
12	76	38	0.014048783317781
12	78	39	0.004706952844676
12	80	40	0.0021606294294067
12	82	41	0.00085520284321313
12	84	42	0.00023535564936605
12	86	43	0
12	88	44	0
12	90	45	0
12	92	46	0
12	94	47	0
12	96	48	0
12	98	49	0
12	100	50	0
12	102	51	0
12	104	52	0
12	106	53	0
12	108	54	0
12	110	55	0
12	112	56	0
12	114	57	0
12	116	58	1.4928690909603
12	118	59	4.1190287174852
12	120	60	6.2789147252645
12	122	61	8.4506997212032
12	124	62	10.444715451189
12	126	63	12.725158972639
12	128	64	15.348076700439
12	130	65	17.235251178007
12	132	66	19.210406433182
12	134	67	22.009662133847
12	136	68	24.796495495686
12	138	69	27.468657484367
12	140	70	27.984425154484
12	142	71	28.482536020076
12	144	72	27.526784727319
12	146	73	28.59032498914
12	148	74	27.90158169178
12	150	75	28.149262254095
12	152	76	28.403395567291
12	154	77	28.071094177167
12	156	78	28.245364264321
12	158	79	27.249624453803
12	160	80	27.333837831711
11	22	11	76.65
11	24	12	76.65
11	26	13	76.65
11	28	14	76.65
11	30	15	76.65
11	32	16	76.65
11	34	17	76.65
11	36	18	76.65
11	38	19	76.65
11	40	20	76.65
11	42	21	76.65
11	44	22	76.65
11	46	23	76.65
11	48	24	76.65
11	50	25	76.65
11	52	26	76.65
11	54	27	76.65
11	56	28	76.65
11	58	29	76.65
11	60	30	76.65
11	62	31	76.65
11	64	32	76.65
11	66	33	76.65
11	68	34	76.65
11	70	35	76.65
11	72	36	76.65
11	74	37	76.65
11	76	38	76.65
11	78	39	76.65
11	80	40	76.65
11	82	41	76.65
11	84	42	76.65
11	86	43	76.65
11	88	44	76.65
11	90	45	76.65
11	92	46	76.65
11	94	47	76.65
11	96	48	76.65
11	98	49	76.65
11	100	50	76.65
11	102	51	76.65
11	104	52	76.65
11	106	53	76.65
11	108	54	76.65
11	110	55	76.65
11	112	56	76.65
11	114	57	76.65
11	116	58	76.65
11	118	59	76.65
11	120	60	76.65
11	122	61	76.65
11	124	62	76.65
11	126	63	76.65
11	128	64	76.65
11	130	65	76.65
11	132	66	76.65
11	134	67	76.65
11	136	68	76.65
11	138	69	76.65
11	140	70	76.65
11	142	71	76.65
11	144	72	76.65
11	146	73	76.65
11	148	74	76.65
11	150	75	76.65
11	152	76	76.65
11	154	77	76.65
11	156	78	76.65
11	158	79	76.65
11	160	80	76.65
10	22	11	27.6
10	24	12	27.6
10	26	13	55.785867935272
10	28	14	82.959572573969
10	30	15	110.14775329973
10	32	16	137.99034025405
10	34	17	166.07426531763
10	36	18	193.52495593689
10	38	19	221.2583662911
10	40	20	249.02869432223
10	42	21	277.17470771468
10	44	22	304.73322950519
10	46	23	332.49648310841
10	48	24	360.11004619161
10	50	25	387.61062388515
10	52	26	415.37235511927
10	54	27	442.86190051518
10	56	28	470.68557910993
10	58	29	498.06503070061
10	60	30	526.44766026449
10	62	31	553.57633042698
10	64	32	581.42227645869
10	66	33	609.18049690333
10	68	34	627.83623354287
10	70	35	637.95893448822
10	72	36	639.3496461887
10	74	37	639.66382904915
10	76	38	639.71790382528
10	78	39	639.7319526086
10	80	40	639.73665956144
10	82	41	639.73882019087
10	84	42	639.73967539371
10	86	43	639.73991074936
10	88	44	639.73991074936
10	90	45	639.73991074936
10	92	46	639.73991074936
10	94	47	639.73991074936
10	96	48	639.73991074936
10	98	49	639.73991074936
10	100	50	639.73991074936
10	102	51	639.73991074936
10	104	52	639.73991074936
10	106	53	639.73991074936
10	108	54	639.73991074936
10	110	55	639.73991074936
10	112	56	639.73991074936
10	114	57	639.73991074936
10	116	58	639.73991074936
10	118	59	641.23277984032
10	120	60	645.35180855781
10	122	61	651.63072328307
10	124	62	660.08142300428
10	126	63	670.52613845547
10	128	64	683.2512974281
10	130	65	698.59937412854
10	132	66	715.83462530655
10	134	67	735.04503173973
10	136	68	757.05469387358
10	138	69	781.85118936927
10	140	70	809.31984685363
10	142	71	837.30427200812
10	144	72	865.78680802819
10	146	73	893.31359275551
10	148	74	921.90391774465
10	150	75	949.80549943643
10	152	76	977.95476169053
10	154	77	1006.3581572578
10	156	78	1034.429251435
10	158	79	1062.6746156993
10	160	80	1089.9242401531
19	36	18	0.973
19	38	19	8.7656023505817
19	40	20	2.8067614496698
19	42	21	2.4722530214755
19	44	22	6.1995125269225
19	46	23	5.1887010820362
19	48	24	0.57091125970782
19	50	25	4.4369048993526
19	52	26	6.9145395049439
19	54	27	0.38250473711102
19	56	28	5.8641351389334
19	58	29	8.1089315714804
19	60	30	3.0251732716807
19	62	31	5.9013711644349
19	64	32	0.65160827145067
19	66	33	6.7989365759798
19	68	34	1.447709497637
19	70	35	9.7662920073525
19	72	36	2.5682175506951
19	74	37	-0.26314758624878
19	76	38	0.973
19	78	39	0.973
19	80	40	0.973
19	82	41	0.973
19	84	42	0.973
19	86	43	1.1100535191852
19	88	44	1.1100276448882
19	90	45	0.973
19	92	46	0.973
19	94	47	0.973
19	96	48	0.973
19	98	49	0.973
19	100	50	0.973
19	102	51	0.973
19	104	52	0.973
19	106	53	0.973
19	108	54	0.973
19	110	55	0.973
19	112	56	0.973
19	114	57	0.973
19	116	58	0.973
19	118	59	1.6157969032089
19	120	60	2.44170348887
19	122	61	3.2247400877639
19	124	62	4.1389632231575
19	126	63	5.8123844779792
19	128	64	8.0283231280027
19	130	65	6.443672339277
19	132	66	9.7410647798825
19	134	67	10.071923427817
19	136	68	15.261777472781
19	138	69	11.455041048443
19	140	70	19.45033733951
19	142	71	20.750054549449
19	144	72	16.279147496143
19	146	73	1.7384772831682
19	148	74	0.973
19	150	75	13.534816598956
19	152	76	1.8017284293432
19	154	77	0.25382594705165
19	156	78	9.3043846262227
19	158	79	5.1813406041148
19	160	80	4.1546527427323
19	162	81	0.973
19	164	82	12.065336768713
18	36	18	-1.0027814763598
18	38	19	0.6573272900423
18	40	20	-0.23075939028058
18	42	21	-0.27363085106481
18	44	22	0.28272506373469
18	46	23	0.12425474915653
18	48	24	-0.56181455100887
18	50	25	0.031846217229031
18	52	26	0.391742648324
18	54	27	-0.58810459147207
18	56	28	0.24871918000281
18	58	29	0.55960003193468
18	60	30	-0.19821544387378
18	62	31	0.22647401026916
18	64	32	-0.55157871020492
18	66	33	0.37068583758082
18	68	34	-0.42830911232159
18	70	35	0.79419417993631
18	72	36	-0.27146273874678
18	74	37	-0.68884672655258
18	76	38	-5.9202450867755
18	78	39	-9.81
18	80	40	-9.81
18	82	41	-1.2180049978588
18	84	42	-0.10018516470601
18	86	43	-0.0011139987340456
18	88	44	-0.00054102187432374
18	90	45	-0.00057462295072668
18	92	46	0
18	94	47	0
18	96	48	0
18	98	49	0
18	100	50	0
18	102	51	0
18	104	52	0
18	106	53	0
18	108	54	0
18	110	55	0
18	112	56	0
18	114	57	0
18	116	58	0
18	118	59	1.3517476415756
18	120	60	1.642098146109
18	122	61	1.672103885212
18	124	62	1.7446371107362
18	126	63	2.072384232888
18	128	64	2.3937650233274
18	130	65	1.5253651491366
18	132	66	2.1751854002941
18	134	67	1.9457624140196
18	136	68	2.7110017812811
18	138	69	1.6841681865044
18	140	70	2.7937097707763
18	142	71	2.6278482398484
18	144	72	1.7392380671683
18	146	73	-0.39962792862207
18	148	74	-0.85240311012603
18	150	75	1.3271742666839
18	152	76	-0.39220899296924
18	154	77	-0.6135409619892
18	156	78	0.72207479376812
18	158	79	0.10376351641025
18	160	80	-0.046765224658884
18	162	81	-0.84758131520357
18	164	82	1.1079443434719
17	34	17	27.968599276575
17	36	18	26.965817800215
17	38	19	27.623145090257
17	40	20	27.392385699977
17	42	21	27.118754848912
17	44	22	27.401479912647
17	46	23	27.525734661803
17	48	24	26.963920110794
17	50	25	26.995766328023
17	52	26	27.387508976347
17	54	27	26.799404384875
17	56	28	27.048123564878
17	58	29	27.607723596813
17	60	30	27.409508152939
17	62	31	27.635982163208
17	64	32	27.084403453003
17	66	33	27.455089290584
17	68	34	27.026780178263
17	70	35	27.820974358199
17	72	36	27.549511619452
17	74	37	26.860664892899
17	76	38	20.940419806124
17	78	39	11.130419806124
17	80	40	1.3204198061239
17	82	41	0.10241480826511
17	84	42	0.002229643559096
17	86	43	0.0011156448250504
17	88	44	0.00057462295072668
17	90	45	0
17	92	46	0
17	94	47	0
17	96	48	0
17	98	49	0
17	100	50	0
17	102	51	0
17	104	52	0
17	106	53	0
17	108	54	0
17	110	55	0
17	112	56	0
17	114	57	0
17	116	58	0
17	118	59	1.3517476415756
17	120	60	2.9938457876846
17	122	61	4.6659496728965
17	124	62	6.4105867836328
17	126	63	8.4829710165208
17	128	64	10.876736039848
17	130	65	12.402101188985
17	132	66	14.577286589279
17	134	67	16.523049003299
17	136	68	19.23405078458
17	138	69	20.918218971084
17	140	70	23.71192874186
17	142	71	26.339776981709
17	144	72	28.079015048877
17	146	73	27.679387120255
17	148	74	26.826984010129
17	150	75	28.154158276813
17	152	76	27.761949283844
17	154	77	27.148408321854
17	156	78	27.870483115622
17	158	79	27.974246632033
17	160	80	27.927481407374
17	162	81	27.07990009217
17	164	82	28.187844435642
16	32	16	76.65
16	34	17	76.65
16	36	18	76.65
16	38	19	76.65
16	40	20	76.65
16	42	21	76.65
16	44	22	76.65
16	46	23	76.65
16	48	24	76.65
16	50	25	76.65
16	52	26	76.65
16	54	27	76.65
16	56	28	76.65
16	58	29	76.65
16	60	30	76.65
16	62	31	76.65
16	64	32	76.65
16	66	33	76.65
16	68	34	76.65
16	70	35	76.65
16	72	36	76.65
16	74	37	76.65
16	76	38	76.65
16	78	39	76.65
16	80	40	76.65
16	82	41	76.65
16	84	42	76.65
16	86	43	76.65
16	88	44	76.65
16	90	45	76.65
16	92	46	76.65
16	94	47	76.65
16	96	48	76.65
16	98	49	76.65
16	100	50	76.65
16	102	51	76.65
16	104	52	76.65
16	106	53	76.65
16	108	54	76.65
16	110	55	76.65
16	112	56	76.65
16	114	57	76.65
16	116	58	76.65
16	118	59	76.65
16	120	60	76.65
16	122	61	76.65
16	124	62	76.65
16	126	63	76.65
16	128	64	76.65
16	130	65	76.65
16	132	66	76.65
16	134	67	76.65
16	136	68	76.65
16	138	69	76.65
16	140	70	76.65
16	142	71	76.65
16	144	72	76.65
16	146	73	76.65
16	148	74	76.65
16	150	75	76.65
16	152	76	76.65
16	154	77	76.65
16	156	78	76.65
16	158	79	76.65
16	160	80	76.65
16	162	81	76.65
16	164	82	76.65
15	32	16	27.6
15	34	17	27.6
15	36	18	55.568599276575
15	38	19	82.53441707679
15	40	20	110.15756216705
15	42	21	137.54994786702
15	44	22	164.66870271594
15	46	23	192.07018262858
15	48	24	219.59591729039
15	50	25	246.55983740118
15	52	26	273.5556037292
15	54	27	300.94311270555
15	56	28	327.74251709043
15	58	29	354.79064065531
15	60	30	382.39836425212
15	62	31	409.80787240506
15	64	32	437.44385456827
15	66	33	464.52825802127
15	68	34	491.98334731185
15	70	35	519.01012749012
15	72	36	546.83110184831
15	74	37	574.38061346777
15	76	38	601.24127836067
15	78	39	622.18169816679
15	80	40	633.31211797291
15	82	41	634.63253777904
15	84	42	634.7349525873
15	86	43	634.73718223086
15	88	44	634.73829787569
15	90	45	634.73887249864
15	92	46	634.73887249864
15	94	47	634.73887249864
15	96	48	634.73887249864
15	98	49	634.73887249864
15	100	50	634.73887249864
15	102	51	634.73887249864
15	104	52	634.73887249864
15	106	53	634.73887249864
15	108	54	634.73887249864
15	110	55	634.73887249864
15	112	56	634.73887249864
15	114	57	634.73887249864
15	116	58	634.73887249864
15	118	59	634.73887249864
15	120	60	636.09062014021
15	122	61	639.0844659279
15	124	62	643.75041560079
15	126	63	650.16100238443
15	128	64	658.64397340095
15	130	65	669.5207094408
15	132	66	681.92281062978
15	134	67	696.50009721906
15	136	68	713.02314622236
15	138	69	732.25719700694
15	140	70	753.17541597802
15	142	71	776.88734471988
15	144	72	803.22712170159
15	146	73	831.30613675047
15	148	74	858.98552387072
15	150	75	885.81250788085
15	152	76	913.96666615766
15	154	77	941.72861544151
15	156	78	968.87702376336
15	158	79	996.74750687898
15	160	80	1024.721753511
15	162	81	1052.6492349184
15	164	82	1079.7291350106
24	46	23	1.7198140054505
24	48	24	6.1081315522163
24	50	25	0.45128873086585
24	52	26	3.9248539072026
24	54	27	5.9903169423355
24	56	28	5.5287536501706
24	58	29	0.973
24	60	30	6.9005996942308
24	62	31	0.63551902889744
24	64	32	6.2605383721301
24	66	33	0.973
24	68	34	7.5420850485266
24	70	35	0.973
24	72	36	11.811932117491
24	74	37	0.973
24	76	38	1.7851376226039
24	78	39	10.392072964978
24	80	40	0.973
24	82	41	5.2123049142352
24	84	42	3.4408699298883
24	86	43	5.6820047546245
24	88	44	5.1921189301963
24	90	45	4.3959947610159
24	92	46	0.973
24	94	47	0.973
24	96	48	0.973
24	98	49	1.111675651025
24	100	50	1.1101041571236
24	102	51	1.1100342078706
24	104	52	0.973
24	106	53	0.973
24	108	54	0.973
24	110	55	0.973
24	112	56	0.973
24	114	57	0.973
24	116	58	0.973
24	118	59	0.973
24	120	60	1.9542168794543
24	122	61	2.7449087048161
24	124	62	4.6707863505946
24	126	63	6.2534607027235
24	128	64	5.3952551838666
24	130	65	6.708835318153
24	132	66	11.716618706393
24	134	67	5.9360319575543
24	136	68	9.4222974846315
24	138	69	12.694525571839
24	140	70	7.4469727386103
24	142	71	18.784399883473
24	144	72	9.1875089376349
24	146	73	2.6522043025489
24	148	74	0.16387995885175
24	150	75	3.1934879095174
24	152	76	11.322787611169
24	154	77	0.973
24	156	78	10.822570966068
24	158	79	0.973
24	160	80	3.7502388831921
24	162	81	7.9080639078181
24	164	82	4.4597347362637
24	166	83	0.44283609306024
24	168	84	0.973
24	170	85	7.0633944019931
24	172	86	1.0359624935136
23	46	23	-0.30073112924583
23	48	24	0.45402796100825
23	50	25	-0.52526372484863
23	52	26	0.090403794078156
23	54	27	0.43355912924744
23	56	28	0.3361811946379
23	58	29	-0.91208067757543
23	60	30	0.59132538351696
23	62	31	-0.49308057501912
23	64	32	0.48051058023702
23	66	33	-0.64709407940973
23	68	34	0.70043158822227
23	70	35	-0.71973387699109
23	72	36	1.3806626497535
23	74	37	-1.0407006307505
23	76	38	-0.28552295663394
23	78	39	1.1546452429611
23	80	40	-0.9290560958907
23	82	41	0.30186700634658
23	84	42	-0.0077594413887709
23	86	43	0.36559451557696
23	88	44	0.26842668454628
23	90	45	0.12743186764419
23	92	46	-8.5932000682355
23	94	47	-9.2066623381711
23	96	48	-6.5806477885085
23	98	49	-0.046368049979316
23	100	50	-0.042467261021563
23	102	51	-0.002024225384027
23	104	52	-0.00071636276433916
23	106	53	0
23	108	54	0
23	110	55	0
23	112	56	0
23	114	57	0
23	116	58	0
23	118	59	0
23	120	60	1.7736439090222
23	122	61	1.7308723524911
23	124	62	2.3224513790337
23	126	63	2.3758505363949
23	128	64	1.580618756474
23	130	65	1.7611000661273
23	132	66	2.7910925875185
23	134	67	1.0141043092339
23	136	68	1.7100409424725
23	138	69	2.1593301733667
23	140	70	0.94778338130694
23	142	71	2.7920800797874
23	144	72	0.98023494856642
23	146	73	-0.14815299259499
23	148	74	-0.57585685292725
23	150	75	-0.033233660738915
23	152	76	1.3009401398012
23	154	77	-1.3852918519406
23	156	78	1.2296100114472
23	158	79	-0.82727525546215
23	160	80	0.052355016348884
23	162	81	0.73513708845712
23	164	82	0.14010984054767
23	166	83	-0.53484991996083
23	168	84	-0.84150595776737
23	170	85	0.62813141033985
23	172	86	-0.42073313717265
22	44	22	23.648041684041
22	46	23	23.347310554796
22	48	24	23.801338515804
22	50	25	23.276074790955
22	52	26	23.366478585033
22	54	27	23.800037714281
22	56	28	24.136218908919
22	58	29	23.224138231343
22	60	30	23.81546361486
22	62	31	23.322383039841
22	64	32	23.802893620078
22	66	33	23.155799540668
22	68	34	23.856231128891
22	70	35	23.1364972519
22	72	36	24.517159901653
22	74	37	23.476459270903
22	76	38	23.190936314269
22	78	39	24.34558155723
22	80	40	23.416525461339
22	82	41	23.718392467686
22	84	42	23.710633026297
22	86	43	24.076227541874
22	88	44	24.34465422642
22	90	45	24.472086094064
22	92	46	15.878886025829
22	94	47	6.6722236876578
22	96	48	0.091575899149245
22	98	49	0.045207849169929
22	100	50	0.0027405881483661
22	102	51	0.00071636276433916
22	104	52	0
22	106	53	0
22	108	54	0
22	110	55	0
22	112	56	0
22	114	57	0
22	116	58	0
22	118	59	0
22	120	60	1.7736439090222
22	122	61	3.5045162615133
22	124	62	5.8269676405471
22	126	63	8.2028181769419
22	128	64	9.7834369334159
22	130	65	11.544536999543
22	132	66	14.335629587062
22	134	67	15.349733896296
22	136	68	17.059774838768
22	138	69	19.219105012135
22	140	70	20.166888393442
22	142	71	22.958968473229
22	144	72	23.939203421795
22	146	73	23.791050429201
22	148	74	23.215193576273
22	150	75	23.181959915534
22	152	76	24.482900055336
22	154	77	23.097608203395
22	156	78	24.327218214842
22	158	79	23.49994295938
22	160	80	23.552297975729
22	162	81	24.287435064186
22	164	82	24.427544904734
22	166	83	23.892694984773
22	168	84	23.051189027006
22	170	85	23.679320437345
22	172	86	23.258587300173
21	42	21	76.65
21	44	22	76.65
21	46	23	76.65
21	48	24	76.65
21	50	25	76.65
21	52	26	76.65
21	54	27	76.65
21	56	28	76.65
21	58	29	76.65
21	60	30	76.65
21	62	31	76.65
21	64	32	76.65
21	66	33	76.65
21	68	34	76.65
21	70	35	76.65
21	72	36	76.65
21	74	37	76.65
21	76	38	76.65
21	78	39	76.65
21	80	40	76.65
21	82	41	76.65
21	84	42	76.65
21	86	43	76.65
21	88	44	76.65
21	90	45	76.65
21	92	46	76.65
21	94	47	76.65
21	96	48	76.65
21	98	49	76.65
21	100	50	76.65
21	102	51	76.65
21	104	52	76.65
21	106	53	76.65
21	108	54	76.65
21	110	55	76.65
21	112	56	76.65
21	114	57	76.65
21	116	58	76.65
21	118	59	76.65
21	120	60	76.65
21	122	61	76.65
21	124	62	76.65
21	126	63	76.65
21	128	64	76.65
21	130	65	76.65
21	132	66	76.65
21	134	67	76.65
21	136	68	76.65
21	138	69	76.65
21	140	70	76.65
21	142	71	76.65
21	144	72	76.65
21	146	73	76.65
21	148	74	76.65
21	150	75	76.65
21	152	76	76.65
21	154	77	76.65
21	156	78	76.65
21	158	79	76.65
21	160	80	76.65
21	162	81	76.65
21	164	82	76.65
21	166	83	76.65
21	168	84	76.65
21	170	85	76.65
21	172	86	76.65
20	42	21	27.6
20	44	22	27.6
20	46	23	51.248041684041
20	48	24	74.595352238837
20	50	25	98.396690754641
20	52	26	121.6727655456
20	54	27	145.03924413063
20	56	28	168.83928184491
20	58	29	192.97550075383
20	60	30	216.19963898517
20	62	31	240.01510260003
20	64	32	263.33748563987
20	66	33	287.14037925995
20	68	34	310.29617880062
20	70	35	334.15240992951
20	72	36	357.28890718141
20	74	37	381.80606708306
20	76	38	405.28252635397
20	78	39	428.47346266824
20	80	40	452.81904422547
20	82	41	476.2355696868
20	84	42	499.95396215449
20	86	43	523.66459518079
20	88	44	547.74082272266
20	90	45	572.08547694908
20	92	46	596.55756304315
20	94	47	612.43644906897
20	96	48	619.10867275663
20	98	49	619.20024865578
20	100	50	619.24545650495
20	102	51	619.2481970931
20	104	52	619.24891345586
20	106	53	619.24891345586
20	108	54	619.24891345586
20	110	55	619.24891345586
20	112	56	619.24891345586
20	114	57	619.24891345586
20	116	58	619.24891345586
20	118	59	619.24891345586
20	120	60	619.24891345586
20	122	61	621.02255736489
20	124	62	624.5270736264
20	126	63	630.35404126695
20	128	64	638.55685944389
20	130	65	648.34029637731
20	132	66	659.88483337685
20	134	67	674.22046296391
20	136	68	689.57019686021
20	138	69	706.62997169897
20	140	70	725.84907671111
20	142	71	746.01596510455
20	144	72	768.97493357778
20	146	73	792.91413699957
20	148	74	816.70518742878
20	150	75	839.92038100505
20	152	76	863.10234092058
20	154	77	887.58524097592
20	156	78	910.68284917931
20	158	79	935.01006739416
20	160	80	958.51001035354
20	162	81	982.06230832926
20	164	82	1006.3497433935
20	166	83	1030.7772882982
20	168	84	1054.669983283
20	170	85	1077.72117231
20	172	86	1101.4004927473
29	56	28	5.754529403278
29	58	29	4.9858038120998
29	60	30	1.031036190352
29	62	31	3.9208490831598
29	64	32	9.9739360157494
29	66	33	2.5921328459627
29	68	34	6.3291471048379
29	70	35	0.90433458758265
29	72	36	0.973
29	74	37	3.8251670327525
29	76	38	0.973
29	78	39	0.973
29	80	40	10.723491919808
29	82	41	0.973
29	84	42	2.9964651443814
29	86	43	9.5855743886642
29	88	44	4.2052142828064
29	90	45	3.5654718380208
29	92	46	4.9885069787628
29	94	47	0.973
29	96	48	0.973
29	98	49	0.973
29	100	50	1.1118210873129
29	102	51	1.1109837204893
29	104	52	1.1101302397789
29	106	53	1.110039879307
29	108	54	1.1100243758663
29	110	55	1.1100075501647
29	112	56	0.973
29	114	57	0.973
29	116	58	0.973
29	118	59	0.973
29	120	60	0.973
29	122	61	1.7856587553499
29	124	62	2.4229421851405
29	126	63	5.7811560986982
29	128	64	5.0004286205892
29	130	65	4.6974287434758
29	132	66	7.662305915713
29	134	67	12.122411143032
29	136	68	3.0731006156401
29	138	69	11.966671176934
29	140	70	11.662666211826
29	142	71	7.7762935081851
29	144	72	16.656021592835
29	146	73	17.455741952093
29	148	74	0.973
29	150	75	0.973
29	152	76	9.716765399728
29	154	77	4.1022249841206
29	156	78	0.973
29	158	79	7.6343682821316
29	160	80	3.0812454385373
29	162	81	0.973
29	164	82	9.1686524953153
29	166	83	6.630819097182
29	168	84	6.5033004051091
29	170	85	0.973
29	172	86	8.673300875255
29	174	87	0.973
28	56	28	0.015538307838142
28	58	29	-0.081297066179104
28	60	30	-0.58373815915547
28	62	31	-0.19247061456554
28	64	32	0.58180507365614
28	66	33	-0.37649380008224
28	68	34	0.11503520887345
28	70	35	-0.59002997214281
28	72	36	-1.9118304577427
28	74	37	-0.12334546713602
28	76	38	-2.3645153751943
28	78	39	-2.3478525056812
28	80	40	1.1449030853525
28	82	41	-1.2651516871328
28	84	42	-0.087744115109007
28	86	43	0.98486737719742
28	88	44	0.080170896324987
28	90	45	-0.025758354605362
28	92	46	0.20301394740759
28	94	47	-9.1386136080386
28	96	48	-7.9290471416339
28	98	49	-7.8490152762256
28	100	50	-0.053659638401464
28	102	51	-0.027884090269164
28	104	52	-0.020681769990949
28	106	53	-0.0021751603780022
28	108	54	-0.00032963004657994
28	110	55	-0.00034935135017011
28	112	56	-0.00015678617614383
28	114	57	0
28	116	58	0
28	118	59	0
28	120	60	0
28	122	61	1.5768418882769
28	124	62	1.5425589944676
28	126	63	2.9690782469697
28	128	64	1.8176814428292
28	130	65	1.3713271419125
28	132	66	2.1327094262943
28	134	67	2.9117440644186
28	136	68	0.27614226662719
28	138	69	2.3480822439305
28	140	70	1.9765693038935
28	142	71	1.0332786752782
28	144	72	2.481752036023
28	146	73	2.3062023116169
28	148	74	-0.72717011103464
28	150	75	-1.1921663186936
28	152	76	1.0751541153789
28	154	77	0.096520239559041
28	156	78	-0.69341427067478
28	158	79	0.70643749838883
28	160	80	-0.077908617483438
28	162	81	-1.0196127696612
28	164	82	0.98056315393519
28	166	83	0.51032072706369
28	168	84	0.46282760313239
28	170	85	-1.5123440200091
28	172	86	0.87046308295642
28	174	87	-1.0447315442262
27	54	27	31.846806130587
27	56	28	31.862344438425
27	58	29	31.781047372246
27	60	30	31.197309213091
27	62	31	31.004838598525
27	64	32	31.586643672181
27	66	33	31.210149872099
27	68	34	31.325185080972
27	70	35	30.73515510883
27	72	36	28.823324651087
27	74	37	28.699979183951
27	76	38	26.335463808756
27	78	39	23.987611303075
27	80	40	25.132514388428
27	82	41	23.867362701295
27	84	42	23.779618586186
27	86	43	24.764485963383
27	88	44	24.844656859708
27	90	45	24.818898505103
27	92	46	25.021912452511
27	94	47	15.883298844472
27	96	48	7.954251702838
27	98	49	0.10523642661247
27	100	50	0.05157678821101
27	102	51	0.023692697941845
27	104	52	0.0030109279508961
27	106	53	0.00083576757289389
27	108	54	0.00050613752631394
27	110	55	0.00015678617614383
27	112	56	0
27	114	57	0
27	116	58	0
27	118	59	0
27	120	60	0
27	122	61	1.5768418882769
27	124	62	3.1194008827445
27	126	63	6.0884791297142
27	128	64	7.9061605725435
27	130	65	9.2774877144559
27	132	66	11.41019714075
27	134	67	14.321941205169
27	136	68	14.598083471796
27	138	69	16.946165715727
27	140	70	18.92273501962
27	142	71	19.956013694898
27	144	72	22.437765730921
27	146	73	24.743968042538
27	148	74	24.016797931503
27	150	75	22.82463161281
27	152	76	23.899785728189
27	154	77	23.996305967748
27	156	78	23.302891697073
27	158	79	24.009329195462
27	160	80	23.931420577978
27	162	81	22.911807808317
27	164	82	23.892370962252
27	166	83	24.402691689316
27	168	84	24.865519292449
27	170	85	23.353175272439
27	172	86	24.223638355396
27	174	87	23.17890681117
26	52	26	76.65
26	54	27	76.65
26	56	28	76.65
26	58	29	76.65
26	60	30	76.65
26	62	31	76.65
26	64	32	76.65
26	66	33	76.65
26	68	34	76.65
26	70	35	76.65
26	72	36	76.65
26	74	37	76.65
26	76	38	76.65
26	78	39	76.65
26	80	40	76.65
26	82	41	76.65
26	84	42	76.65
26	86	43	76.65
26	88	44	76.65
26	90	45	76.65
26	92	46	76.65
26	94	47	76.65
26	96	48	76.65
26	98	49	76.65
26	100	50	76.65
26	102	51	76.65
26	104	52	76.65
26	106	53	76.65
26	108	54	76.65
26	110	55	76.65
26	112	56	76.65
26	114	57	76.65
26	116	58	76.65
26	118	59	76.65
26	120	60	76.65
26	122	61	76.65
26	124	62	76.65
26	126	63	76.65
26	128	64	76.65
26	130	65	76.65
26	132	66	76.65
26	134	67	76.65
26	136	68	76.65
26	138	69	76.65
26	140	70	76.65
26	142	71	76.65
26	144	72	76.65
26	146	73	76.65
26	148	74	76.65
26	150	75	76.65
26	152	76	76.65
26	154	77	76.65
26	156	78	76.65
26	158	79	76.65
26	160	80	76.65
26	162	81	76.65
26	164	82	76.65
26	166	83	76.65
26	168	84	76.65
26	170	85	76.65
26	172	86	76.65
26	174	87	76.65
25	52	26	27.6
25	54	27	27.6
25	56	28	59.446806130587
25	58	29	91.309150569012
25	60	30	123.09019794126
25	62	31	154.28750715435
25	64	32	185.29234575287
25	66	33	216.87898942505
25	68	34	248.08913929715
25	70	35	279.41432437813
25	72	36	310.14947948696
25	74	37	338.97280413804
25	76	38	367.67278332199
25	78	39	394.00824713075
25	80	40	417.99585843382
25	82	41	443.12837282225
25	84	42	466.99573552355
25	86	43	490.77535410973
25	88	44	515.53984007312
25	90	45	540.38449693283
25	92	46	565.20339543793
25	94	47	590.22530789044
25	96	48	606.10860673491
25	98	49	614.06285843775
25	100	50	614.16809486436
25	102	51	614.21967165257
25	104	52	614.24336435051
25	106	53	614.24637527846
25	108	54	614.24721104604
25	110	55	614.24771718356
25	112	56	614.24787396974
25	114	57	614.24787396974
25	116	58	614.24787396974
25	118	59	614.24787396974
25	120	60	614.24787396974
25	122	61	614.24787396974
25	124	62	615.82471585802
25	126	63	618.94411674076
25	128	64	625.03259587048
25	130	65	632.93875644302
25	132	66	642.21624415748
25	134	67	653.62644129823
25	136	68	667.94838250339
25	138	69	682.54646597519
25	140	70	699.49263169092
25	142	71	718.41536671054
25	144	72	738.37138040544
25	146	73	760.80914613636
25	148	74	785.55311417889
25	150	75	809.5699121104
25	152	76	832.39454372321
25	154	77	856.2943294514
25	156	78	880.29063541914
25	158	79	903.59352711622
25	160	80	927.60285631168
25	162	81	951.53427688966
25	164	82	974.44608469798
25	166	83	998.33845566023
25	168	84	1022.7411473495
25	170	85	1047.606666642
25	172	86	1070.9598419144
25	174	87	1095.1834802698
34	66	33	3.8659757209588
34	68	34	4.869130155239
34	70	35	6.6523318641192
34	72	36	4.0811594471718
34	74	37	4.973427140971
34	76	38	0.973
34	78	39	9.8094229342761
34	80	40	3.2421860456858
34	82	41	6.5046071594608
34	84	42	0.973
34	86	43	1.4218253412069
34	88	44	10.705045593214
34	90	45	0.973
34	92	46	7.0471629311923
34	94	47	5.713715884532
34	96	48	6.362503773908
34	98	49	4.0263033472061
34	100	50	0.53017418395225
34	102	51	3.8946058523337
34	104	52	3.4983168447694
34	106	53	0.973
34	108	54	0.973
34	110	55	0.973
34	112	56	0.973
34	114	57	1.1103797912091
34	116	58	1.1101305631807
34	118	59	1.1100243939814
34	120	60	1.1100137417663
34	122	61	0.973
34	124	62	1.4049025948601
34	126	63	1.8668515195711
34	128	64	4.2140635967862
34	130	65	4.1445485553134
34	132	66	5.490681214682
34	134	67	7.9584128418637
34	136	68	11.982601904481
34	138	69	13.418749397861
34	140	70	10.312445294176
34	142	71	6.5749598639074
34	144	72	6.3956273058192
34	146	73	16.899277943485
34	148	74	12.654085456751
34	150	75	10.463461680449
34	152	76	0.973
34	154	77	8.655220346084
34	156	78	10.163472186275
34	158	79	0.973
34	160	80	4.3794418183942
34	162	81	8.7722292401542
34	164	82	0.973
34	166	83	13.479666717654
34	168	84	9.9453562705147
34	170	85	6.0218759241905
34	172	86	0.973
34	174	87	11.394211123423
34	176	88	0.973
33	66	33	0.0067289869766682
33	68	34	0.16412850120105
33	70	35	0.43124269670807
33	72	36	0.018435291945934
33	74	37	0.15459434653167
33	76	38	-1.1266257794341
33	78	39	0.93837723357137
33	80	40	-0.11115059559233
33	82	41	0.39341069350485
33	84	42	-0.85389557224698
33	86	43	-0.38619176892098
33	88	44	1.0729086025385
33	90	45	-1.0367776772473
33	92	46	0.51840081706177
33	94	47	0.28716616833117
33	96	48	0.37222588830628
33	98	49	0.0011910845059901
33	100	50	-0.54512605711352
33	102	51	0.00048761896323413
33	104	52	-0.061637060483918
33	106	53	-1.1892291477491
33	108	54	-9.81
33	110	55	-9.81
33	112	56	-4.6225266608577
33	114	57	-0.079587178742313
33	116	58	-0.010217313518343
33	118	59	-0.0023404554401913
33	120	60	-0.00022647703819728
33	122	61	-0.00028518515672438
33	124	62	1.0104499322769
33	126	63	1.2113919241711
33	128	64	2.5120407342911
33	130	65	1.7313736912329
33	132	66	1.9363134467276
33	134	67	2.3887389439624
33	136	68	2.9987212795531
33	138	69	2.7775627073133
33	140	70	1.7552516751223
33	142	71	0.84231577361205
33	144	72	0.74920741941233
33	146	73	2.5264366990887
33	148	74	1.5735539558809
33	150	75	1.1032559589497
33	152	76	-2.5493102483837
33	154	77	0.92125720124607
33	156	78	1.0961865038931
33	158	79	-1.3729437273325
33	160	80	0.17045414204994
33	162	81	0.88429053043516
33	164	82	-1.8205430682855
33	166	83	1.7018248192041
33	168	84	1.0141561409696
33	170	85	0.34927439266691
33	172	86	-3.0791214223975
33	174	87	1.3750251824796
33	176	88	-0.73920030171261
32	64	32	25.286518999395
32	66	33	25.293247986372
32	68	34	25.457376487573
32	70	35	25.888619184281
32	72	36	25.907054476227
32	74	37	26.061648822758
32	76	38	24.935023043324
32	78	39	25.873400276896
32	80	40	25.762249681303
32	82	41	26.155660374808
32	84	42	25.301764802561
32	86	43	24.91557303364
32	88	44	25.988481636179
32	90	45	24.951703958932
32	92	46	25.470104775993
32	94	47	25.757270944324
32	96	48	26.129496832631
32	98	49	26.130687917137
32	100	50	25.585561860023
32	102	51	25.586049478986
32	104	52	25.524412418503
32	106	53	24.335183270753
32	108	54	14.525183270753
32	110	55	4.7151832707534
32	112	56	0.09265660989577
32	114	57	0.013069431153456
32	116	58	0.002852117635113
32	118	59	0.00051166219492166
32	120	60	0.00028518515672438
32	122	61	0
32	124	62	1.0104499322769
32	126	63	2.2218418564481
32	128	64	4.7338825907391
32	130	65	6.465256281972
32	132	66	8.4015697286996
32	134	67	10.790308672662
32	136	68	13.789029952215
32	138	69	16.566592659528
32	140	70	18.321844334651
32	142	71	19.164160108263
32	144	72	19.913367527675
32	146	73	22.439804226764
32	148	74	24.013358182645
32	150	75	25.116614141594
32	152	76	22.567303893211
32	154	77	23.488561094457
32	156	78	24.58474759835
32	158	79	23.211803871017
32	160	80	23.382258013067
32	162	81	24.266548543503
32	164	82	22.446005475217
32	166	83	24.147830294421
32	168	84	25.161986435391
32	170	85	25.511260828058
32	172	86	22.43213940566
32	174	87	23.80716458814
32	176	88	23.067964286427
31	62	31	76.65
31	64	32	76.65
31	66	33	76.65
31	68	34	76.65
31	70	35	76.65
31	72	36	76.65
31	74	37	76.65
31	76	38	76.65
31	78	39	76.65
31	80	40	76.65
31	82	41	76.65
31	84	42	76.65
31	86	43	76.65
31	88	44	76.65
31	90	45	76.65
31	92	46	76.65
31	94	47	76.65
31	96	48	76.65
31	98	49	76.65
31	100	50	76.65
31	102	51	76.65
31	104	52	76.65
31	106	53	76.65
31	108	54	76.65
31	110	55	76.65
31	112	56	76.65
31	114	57	76.65
31	116	58	76.65
31	118	59	76.65
31	120	60	76.65
31	122	61	76.65
31	124	62	76.65
31	126	63	76.65
31	128	64	76.65
31	130	65	76.65
31	132	66	76.65
31	134	67	76.65
31	136	68	76.65
31	138	69	76.65
31	140	70	76.65
31	142	71	76.65
31	144	72	76.65
31	146	73	76.65
31	148	74	76.65
31	150	75	76.65
31	152	76	76.65
31	154	77	76.65
31	156	78	76.65
31	158	79	76.65
31	160	80	76.65
31	162	81	76.65
31	164	82	76.65
31	166	83	76.65
31	168	84	76.65
31	170	85	76.65
31	172	86	76.65
31	174	87	76.65
31	176	88	76.65
30	62	31	27.6
30	64	32	27.6
30	66	33	52.886518999395
30	68	34	78.179766985767
30	70	35	103.63714347334
30	72	36	129.52576265762
30	74	37	155.43281713385
30	76	38	181.49446595661
30	78	39	206.42948899993
30	80	40	232.30288927683
30	82	41	258.06513895813
30	84	42	284.22079933294
30	86	43	309.5225641355
30	88	44	334.43813716914
30	90	45	360.42661880532
30	92	46	385.37832276425
30	94	47	410.84842754024
30	96	48	436.60569848457
30	98	49	462.7351953172
30	100	50	488.86588323433
30	102	51	514.45144509436
30	104	52	540.03749457334
30	106	53	565.56190699185
30	108	54	589.8970902626
30	110	55	604.42227353335
30	112	56	609.13745680411
30	114	57	609.230113414
30	116	58	609.24318284516
30	118	59	609.24603496279
30	120	60	609.24654662499
30	122	61	609.24683181014
30	124	62	609.24683181014
30	126	63	610.25728174242
30	128	64	612.47912359887
30	130	65	617.21300618961
30	132	66	623.67826247158
30	134	67	632.07983220028
30	136	68	642.87014087294
30	138	69	656.65917082516
30	140	70	673.22576348468
30	142	71	691.54760781934
30	144	72	710.7117679276
30	146	73	730.62513545527
30	148	74	753.06493968204
30	150	75	777.07829786468
30	152	76	802.19491200628
30	154	77	824.76221589949
30	156	78	848.25077699394
30	158	79	872.83552459229
30	160	80	896.04732846331
30	162	81	919.42958647638
30	164	82	943.69613501988
30	166	83	966.1421404951
30	168	84	990.28997078952
30	170	85	1015.4519572249
30	172	86	1040.963218053
30	174	87	1063.3953574586
30	176	88	1087.2025220468
39	76	38	0.73712323631422
39	78	39	1.3896159070603
39	80	40	7.3173596862876
39	82	41	2.119478329721
39	84	42	1.9386744159695
39	86	43	4.8955871524551
39	88	44	3.3095543103842
39	90	45	0.973
39	92	46	1.9099105514865
39	94	47	0.73854978924076
39	96	48	5.8395130384695
39	98	49	3.6470516809663
39	100	50	0.98433877433339
39	102	51	5.7465497141349
39	104	52	0.973
39	106	53	2.6481328422678
39	108	54	7.3100961465955
39	110	55	2.6228497157923
39	112	56	0.973
39	114	57	3.8416095089507
39	116	58	1.913600620008
39	118	59	5.5722672157035
39	120	60	0.973
39	122	61	5.5602949021092
39	124	62	0.973
39	126	63	9.013736505033
39	128	64	0.973
39	130	65	0.973
39	132	66	0.973
39	134	67	0.973
39	136	68	6.2976184470992
39	138	69	7.6965531548383
39	140	70	11.552824133943
39	142	71	14.258827508262
39	144	72	17.054044689261
39	146	73	7.2563100664229
39	148	74	0.54924415899068
39	150	75	0.973
39	152	76	4.786693299855
39	154	77	7.2886418617468
39	156	78	2.9796062108739
39	158	79	3.5873312009271
39	160	80	0.973
39	162	81	3.4670396140075
39	164	82	9.546462673724
39	166	83	0.973
39	168	84	1.0839730704517
39	170	85	4.0982848922834
39	172	86	1.9034103654319
39	174	87	7.2609908627397
39	176	88	2.262423853815
39	178	89	0.973
39	180	90	9.9950019851479
39	182	91	0.93124261051964
39	184	92	0.973
38	76	38	-0.43818811245728
38	78	39	-0.3013278124854
38	80	40	0.84511111630127
38	82	41	-0.16961397102568
38	84	42	-0.20055549102835
38	86	43	0.37030611606315
38	88	44	0.05726610228885
38	90	45	-0.57725403900258
38	92	46	-0.19808275694959
38	94	47	-0.430737793562
38	96	48	0.58948977361433
38	98	49	0.14222746307496
38	100	50	-0.38471141410992
38	102	51	0.55202437809203
38	104	52	-1.141012736829
38	106	53	-0.026445796480402
38	108	54	0.88366261927877
38	110	55	-0.057298524887301
38	112	56	-0.70767187722959
38	114	57	0.20991986640729
38	116	58	-0.18420785316266
38	118	59	0.54569224349689
38	120	60	-0.60216186591424
38	122	61	0.54659429937601
38	124	62	-0.55041554372292
38	126	63	1.1904994851211
38	128	64	-4.104358168094
38	130	65	-5.3361071407173
38	132	66	-2.2860963666885
38	134	67	-1.936235308857
38	136	68	2.0528769433731
38	138	69	2.1189951966517
38	140	70	2.7547668790212
38	142	71	2.8677009616513
38	144	72	2.9379367539659
38	146	73	0.84960309956215
38	148	74	-0.47441713465378
38	150	75	-0.68244583834894
38	152	76	0.39953344396781
38	154	77	0.84918495558668
38	156	78	-0.00087275099940598
38	158	79	0.11452570266556
38	160	80	-1.3268529369961
38	162	81	0.13723439304158
38	164	82	1.2757144515635
38	166	83	-0.77845018159132
38	168	84	-0.36030974867754
38	170	85	0.25065532245208
38	172	86	-0.19246730091982
38	174	87	0.84628250508104
38	176	88	-0.13774369389284
38	178	89	-1.0218893392012
38	180	90	1.3661006268812
38	182	91	-0.40170821570791
38	184	92	-0.52040286641568
37	74	37	21.058876605129
37	76	38	20.620688492672
37	78	39	20.319360680186
37	80	40	21.164471796487
37	82	41	20.994857825462
37	84	42	20.794302334433
37	86	43	21.164608450497
37	88	44	21.221874552785
37	90	45	20.644620513783
37	92	46	20.446537756833
37	94	47	20.015799963271
37	96	48	20.605289736886
37	98	49	20.747517199961
37	100	50	20.362805785851
37	102	51	20.914830163943
37	104	52	19.773817427114
37	106	53	19.747371630633
37	108	54	20.631034249912
37	110	55	20.573735725025
37	112	56	19.866063847795
37	114	57	20.075983714202
37	116	58	19.89177586104
37	118	59	20.437468104537
37	120	60	19.835306238622
37	122	61	20.381900537998
37	124	62	19.831484994276
37	126	63	21.021984479397
37	128	64	16.917626311303
37	130	65	11.581519170585
37	132	66	9.2954228038968
37	134	67	7.3591874950399
37	136	68	9.412064438413
37	138	69	11.531059635065
37	140	70	14.285826514086
37	142	71	17.153527475737
37	144	72	20.091464229703
37	146	73	20.941067329265
37	148	74	20.466650194611
37	150	75	19.784204356262
37	152	76	20.18373780023
37	154	77	21.032922755817
37	156	78	21.032050004818
37	158	79	21.146575707483
37	160	80	19.819722770487
37	162	81	19.956957163529
37	164	82	21.232671615092
37	166	83	20.454221433501
37	168	84	20.093911684823
37	170	85	20.344567007275
37	172	86	20.152099706355
37	174	87	20.998382211437
37	176	88	20.860638517544
37	178	89	19.838749178343
37	180	90	21.204849805224
37	182	91	20.803141589516
37	184	92	20.2827387231
36	72	36	76.65
36	74	37	76.65
36	76	38	76.65
36	78	39	76.65
36	80	40	76.65
36	82	41	76.65
36	84	42	76.65
36	86	43	76.65
36	88	44	76.65
36	90	45	76.65
36	92	46	76.65
36	94	47	76.65
36	96	48	76.65
36	98	49	76.65
36	100	50	76.65
36	102	51	76.65
36	104	52	76.65
36	106	53	76.65
36	108	54	76.65
36	110	55	76.65
36	112	56	76.65
36	114	57	76.65
36	116	58	76.65
36	118	59	76.65
36	120	60	76.65
36	122	61	76.65
36	124	62	76.65
36	126	63	76.65
36	128	64	76.65
36	130	65	76.65
36	132	66	76.65
36	134	67	76.65
36	136	68	76.65
36	138	69	76.65
36	140	70	76.65
36	142	71	76.65
36	144	72	76.65
36	146	73	76.65
36	148	74	76.65
36	150	75	76.65
36	152	76	76.65
36	154	77	76.65
36	156	78	76.65
36	158	79	76.65
36	160	80	76.65
36	162	81	76.65
36	164	82	76.65
36	166	83	76.65
36	168	84	76.65
36	170	85	76.65
36	172	86	76.65
36	174	87	76.65
36	176	88	76.65
36	178	89	76.65
36	180	90	76.65
36	182	91	76.65
36	184	92	76.65
35	72	36	27.6
35	74	37	27.6
35	76	38	48.658876605129
35	78	39	69.2795650978
35	80	40	89.598925777987
35	82	41	110.76339757447
35	84	42	131.75825539994
35	86	43	152.55255773437
35	88	44	173.71716618487
35	90	45	194.93904073765
35	92	46	215.58366125143
35	94	47	236.03019900827
35	96	48	256.04599897154
35	98	49	276.65128870842
35	100	50	297.39880590838
35	102	51	317.76161169424
35	104	52	338.67644185818
35	106	53	358.45025928529
35	108	54	378.19763091593
35	110	55	398.82866516584
35	112	56	419.40240089086
35	114	57	439.26846473866
35	116	58	459.34444845286
35	118	59	479.2362243139
35	120	60	499.67369241844
35	122	61	519.50899865706
35	124	62	539.89089919506
35	126	63	559.72238418933
35	128	64	580.74436866873
35	130	65	597.66199498003
35	132	66	609.24351415062
35	134	67	618.53893695451
35	136	68	625.89812444955
35	138	69	635.31018888797
35	140	70	646.84124852303
35	142	71	661.12707503712
35	144	72	678.28060251285
35	146	73	698.37206674256
35	148	74	719.31313407182
35	150	75	739.77978426643
35	152	76	759.5639886227
35	154	77	779.74772642293
35	156	78	800.78064917874
35	158	79	821.81269918356
35	160	80	842.95927489104
35	162	81	862.77899766153
35	164	82	882.73595482506
35	166	83	903.96862644015
35	168	84	924.42284787365
35	170	85	944.51675955848
35	172	86	964.86132656575
35	174	87	985.01342627211
35	176	88	1006.0118084835
35	178	89	1026.8724470011
35	180	90	1046.7111961794
35	182	91	1067.9160459847
35	184	92	1088.7191875742
44	86	43	6.1374001617388
44	88	44	3.6762054318944
44	90	45	6.0341875913163
44	92	46	2.6093679010173
44	94	47	0.973
44	96	48	9.0662131405596
44	98	49	1.1828893105173
44	100	50	0.973
44	102	51	0.973
44	104	52	0.973
44	106	53	0.973
44	108	54	1.7996365030663
44	110	55	2.6688172610252
44	112	56	3.947035952128
44	114	57	0.973
44	116	58	0.973
44	118	59	1.2440831021838
44	120	60	9.6104527466864
44	122	61	0.973
44	124	62	13.17035679211
44	126	63	0.973
44	128	64	8.353188066407
44	130	65	0.973
44	132	66	0.973
44	134	67	0.973
44	136	68	0.973
44	138	69	2.3138187770648
44	140	70	8.6409738293564
44	142	71	10.695776215801
44	144	72	9.0793645856801
44	146	73	15.494904040934
44	148	74	15.233454625717
44	150	75	10.486909609328
44	152	76	0.973
44	154	77	1.7259155402023
44	156	78	9.5054691708595
44	158	79	3.6033010269019
44	160	80	1.8688650045285
44	162	81	0.973
44	164	82	9.6281704289775
44	166	83	8.6692241101977
44	168	84	0.973
44	170	85	3.8247713276884
44	172	86	5.2382082028607
44	174	87	0.56682133120875
44	176	88	10.65271981467
44	178	89	0.973
44	180	90	0.82290247449988
44	182	91	11.646597854499
44	184	92	0.973
44	186	93	0.973
43	86	43	0.19699452503119
43	88	44	-0.14997472520918
43	90	45	0.1807910297066
43	92	46	-0.29991266538855
43	94	47	-0.92771272128448
43	96	48	0.65003760822583
43	98	49	-0.4890099904723
43	100	50	-2.43397544249
43	102	51	-1.6491058538298
43	104	52	-1.248024230255
43	106	53	-1.489284550897
43	108	54	-0.23088216456282
43	110	55	-0.056644563567353
43	112	56	0.18957864388079
43	114	57	-0.76459761033952
43	116	58	-0.61937878257719
43	118	59	-0.31481893640095
43	120	60	1.3411026822475
43	122	61	-1.3064710677398
43	124	62	1.9694298500564
43	126	63	-1.8480015548399
43	128	64	1.0965302280004
43	130	65	-2.8512585370998
43	132	66	-5.8029857485371
43	134	67	-2.4248432354211
43	136	68	-1.3196373581727
43	138	69	0.35584132061039
43	140	70	2.5635851367842
43	142	71	2.6225787838921
43	144	72	1.8307978837984
43	146	73	2.900669278577
43	148	74	2.4355325839715
43	150	75	1.3574926465017
43	152	76	-2.0689253130153
43	154	77	-0.22504125427101
43	156	78	1.2673350093584
43	158	79	0.10982349573482
43	160	80	-0.22215302622048
43	162	81	-1.6345880990963
43	164	82	1.3312384843517
43	166	83	1.0505771415334
43	168	84	-2.1303356543166
43	170	85	0.21178694681847
43	172	86	0.4782251673448
43	174	87	-0.46584920296135
43	176	88	1.4708684190663
43	178	89	-0.82208974324028
43	180	90	-0.4155300273706
43	182	91	1.6210536526729
43	184	92	-0.88581816979505
43	186	93	-0.54541495783446
42	84	42	28.798798441959
42	86	43	28.99579296699
42	88	44	28.845818241781
42	90	45	29.026609271487
42	92	46	28.726696606099
42	94	47	27.798983884814
42	96	48	28.44902149304
42	98	49	27.960011502568
42	100	50	25.526036060078
42	102	51	23.876930206248
42	104	52	22.628905975993
42	106	53	21.139621425096
42	108	54	20.908739260533
42	110	55	20.852094696966
42	112	56	21.041673340847
42	114	57	20.277075730507
42	116	58	19.65769694793
42	118	59	19.342878011529
42	120	60	20.683980693777
42	122	61	19.377509626037
42	124	62	21.346939476093
42	126	63	19.498937921253
42	128	64	20.595468149254
42	130	65	17.744209612154
42	132	66	11.941223863617
42	134	67	9.5163806281958
42	136	68	8.1967432700231
42	138	69	8.5525845906334
42	140	70	11.116169727418
42	142	71	13.73874851131
42	144	72	15.569546395108
42	146	73	18.470215673685
42	148	74	20.905748257657
42	150	75	22.263240904158
42	152	76	20.194315591143
42	154	77	19.969274336872
42	156	78	21.23660934623
42	158	79	21.346432841965
42	160	80	21.124279815745
42	162	81	19.489691716648
42	164	82	20.820930201
42	166	83	21.871507342534
42	168	84	19.741171688217
42	170	85	19.952958635035
42	172	86	20.43118380238
42	174	87	19.965334599419
42	176	88	21.436203018485
42	178	89	20.614113275245
42	180	90	20.198583247874
42	182	91	21.819636900547
42	184	92	20.933818730752
42	186	93	20.388403772918
41	82	41	76.65
41	84	42	76.65
41	86	43	76.65
41	88	44	76.65
41	90	45	76.65
41	92	46	76.65
41	94	47	76.65
41	96	48	76.65
41	98	49	76.65
41	100	50	76.65
41	102	51	76.65
41	104	52	76.65
41	106	53	76.65
41	108	54	76.65
41	110	55	76.65
41	112	56	76.65
41	114	57	76.65
41	116	58	76.65
41	118	59	76.65
41	120	60	76.65
41	122	61	76.65
41	124	62	76.65
41	126	63	76.65
41	128	64	76.65
41	130	65	76.65
41	132	66	76.65
41	134	67	76.65
41	136	68	76.65
41	138	69	76.65
41	140	70	76.65
41	142	71	76.65
41	144	72	76.65
41	146	73	76.65
41	148	74	76.65
41	150	75	76.65
41	152	76	76.65
41	154	77	76.65
41	156	78	76.65
41	158	79	76.65
41	160	80	76.65
41	162	81	76.65
41	164	82	76.65
41	166	83	76.65
41	168	84	76.65
41	170	85	76.65
41	172	86	76.65
41	174	87	76.65
41	176	88	76.65
41	178	89	76.65
41	180	90	76.65
41	182	91	76.65
41	184	92	76.65
41	186	93	76.65
40	82	41	27.6
40	84	42	27.6
40	86	43	56.398798441959
40	88	44	85.394591408949
40	90	45	114.24040965073
40	92	46	143.26701892222
40	94	47	171.99371552832
40	96	48	199.79269941313
40	98	49	228.24172090617
40	100	50	256.20173240874
40	102	51	281.72776846882
40	104	52	305.60469867506
40	106	53	328.23360465106
40	108	54	349.37322607615
40	110	55	370.28196533669
40	112	56	391.13406003365
40	114	57	412.1757333745
40	116	58	432.45280910501
40	118	59	452.11050605294
40	120	60	471.45338406447
40	122	61	492.13736475824
40	124	62	511.51487438428
40	126	63	532.86181386037
40	128	64	552.36075178163
40	130	65	572.95621993088
40	132	66	590.70042954303
40	134	67	602.64165340665
40	136	68	612.15803403485
40	138	69	620.35477730487
40	140	70	628.9073618955
40	142	71	640.02353162292
40	144	72	653.76228013423
40	146	73	669.33182652934
40	148	74	687.80204220302
40	150	75	708.70779046068
40	152	76	730.97103136484
40	154	77	751.16534695598
40	156	78	771.13462129285
40	158	79	792.37123063908
40	160	80	813.71766348105
40	162	81	834.84194329679
40	164	82	854.33163501344
40	166	83	875.15256521444
40	168	84	897.02407255698
40	170	85	916.76524424519
40	172	86	936.71820288023
40	174	87	957.14938668261
40	176	88	977.11472128203
40	178	89	998.55092430051
40	180	90	1019.1650375758
40	182	91	1039.3636208236
40	184	92	1061.1832577242
40	186	93	1082.1170764549
49	96	48	2.9030584082569
49	98	49	15.328823635641
49	100	50	6.7314192349311
49	102	51	0.973
49	104	52	5.2882217432122
49	106	53	15.849265677401
49	108	54	3.8939495910171
49	110	55	0.973
49	112	56	0.973
49	114	57	0.973
49	116	58	0.973
49	118	59	0.973
49	120	60	0.973
49	122	61	8.4569775392222
49	124	62	0.973
49	126	63	12.970829375892
49	128	64	0.973
49	130	65	8.5742385352411
49	132	66	0.973
49	134	67	0.973
49	136	68	0.973
49	138	69	0.973
49	140	70	0.973
49	142	71	8.3746040974319
49	144	72	6.594335387312
49	146	73	10.224743118077
49	148	74	12.76413547122
49	150	75	12.03254421968
49	152	76	16.380931023479
49	154	77	0.973
49	156	78	0.973
49	158	79	12.476461186005
49	160	80	0.973
49	162	81	6.4502509296299
49	164	82	0.973
49	166	83	7.082962689788
49	168	84	9.1099014129854
49	170	85	0.973
49	172	86	2.8845866003009
49	174	87	6.1908396198294
49	176	88	5.8189208454334
49	178	89	6.1880827747036
49	180	90	0.74037518004226
49	182	91	3.2394245998522
49	184	92	9.5776424588297
49	186	93	0.973
49	188	94	6.5025572075969
49	190	95	16.929801632751
48	96	48	-0.42849456577096
48	98	49	1.0061981094768
48	100	50	-0.0088635730789974
48	102	51	-1.2469660477946
48	104	52	-0.12315748434048
48	106	53	1.0898699221434
48	108	54	-0.32226631301455
48	110	55	-2.5229824098106
48	112	56	-1.8406601592638
48	114	57	-2.3564902397534
48	116	58	-3.7055411465451
48	118	59	-1.6354439431481
48	120	60	-1.0710190931987
48	122	61	0.97168342382418
48	124	62	-3.0877402430608
48	126	63	1.9467975029256
48	128	64	-1.2997615568072
48	130	65	1.10377351562
48	132	66	-2.8757962622992
48	134	67	-6.0940718365722
48	136	68	-1.2976720506769
48	138	69	-1.8814857783268
48	140	70	-0.45617210223412
48	142	71	2.512241515622
48	144	72	1.5619160992792
48	146	73	2.2772304194514
48	148	74	2.4880551095121
48	150	75	2.0099852703279
48	152	76	2.525583992363
48	154	77	-0.85166783234335
48	156	78	-0.63312580551302
48	158	79	1.7514755819486
48	160	80	-0.74942015868736
48	162	81	0.62563931052956
48	164	82	-1.8405527053381
48	166	83	0.8174178182948
48	168	84	1.1204461725724
48	170	85	-2.6078817298594
48	172	86	0.033166125481614
48	174	87	0.69062688632847
48	176	88	0.5779333725834
48	178	89	0.61276645974143
48	180	90	-0.44095259025147
48	182	91	0.053325879237519
48	184	92	1.1981235567722
48	186	93	-1.9826663467639
48	188	94	0.70495154425644
48	190	95	2.4114254799206
47	94	47	34.552777803829
47	96	48	34.124283238058
47	98	49	35.130481347535
47	100	50	35.121617774456
47	102	51	33.874651726661
47	104	52	33.751494242321
47	106	53	34.841364164464
47	108	54	34.51909785145
47	110	55	31.996115441639
47	112	56	30.155455282375
47	114	57	27.798965042622
47	116	58	24.093423896077
47	118	59	22.457979952929
47	120	60	21.38696085973
47	122	61	22.358644283554
47	124	62	19.270904040493
47	126	63	21.217701543419
47	128	64	19.917939986612
47	130	65	21.021713502232
47	132	66	18.145917239933
47	134	67	12.05184540336
47	136	68	10.754173352683
47	138	69	8.8726875743566
47	140	70	8.4165154721225
47	142	71	10.928756987745
47	144	72	12.490673087024
47	146	73	14.767903506475
47	148	74	17.255958615987
47	150	75	19.265943886315
47	152	76	21.791527878678
47	154	77	20.939860046335
47	156	78	20.306734240822
47	158	79	22.05820982277
47	160	80	21.308789664083
47	162	81	21.934428974612
47	164	82	20.093876269274
47	166	83	20.911294087569
47	168	84	22.031740260142
47	170	85	19.423858530282
47	172	86	19.457024655764
47	174	87	20.147651542092
47	176	88	20.725584914676
47	178	89	21.338351374417
47	180	90	20.897398784166
47	182	91	20.950724663403
47	184	92	22.148848220175
47	186	93	20.166181873411
47	188	94	20.871133417668
47	190	95	23.282558897588
46	92	46	76.65
46	94	47	76.65
46	96	48	76.65
46	98	49	76.65
46	100	50	76.65
46	102	51	76.65
46	104	52	76.65
46	106	53	76.65
46	108	54	76.65
46	110	55	76.65
46	112	56	76.65
46	114	57	76.65
46	116	58	76.65
46	118	59	76.65
46	120	60	76.65
46	122	61	76.65
46	124	62	76.65
46	126	63	76.65
46	128	64	76.65
46	130	65	76.65
46	132	66	76.65
46	134	67	76.65
46	136	68	76.65
46	138	69	76.65
46	140	70	76.65
46	142	71	76.65
46	144	72	76.65
46	146	73	76.65
46	148	74	76.65
46	150	75	76.65
46	152	76	76.65
46	154	77	76.65
46	156	78	76.65
46	158	79	76.65
46	160	80	76.65
46	162	81	76.65
46	164	82	76.65
46	166	83	76.65
46	168	84	76.65
46	170	85	76.65
46	172	86	76.65
46	174	87	76.65
46	176	88	76.65
46	178	89	76.65
46	180	90	76.65
46	182	91	76.65
46	184	92	76.65
46	186	93	76.65
46	188	94	76.65
46	190	95	76.65
45	92	46	27.6
45	94	47	27.6
45	96	48	62.152777803829
45	98	49	96.277061041887
45	100	50	131.40754238942
45	102	51	166.52916016388
45	104	52	200.40381189054
45	106	53	234.15530613286
45	108	54	268.99667029732
45	110	55	303.51576814877
45	112	56	335.51188359041
45	114	57	365.66733887279
45	116	58	393.46630391541
45	118	59	417.55972781149
45	120	60	440.01770776442
45	122	61	461.40466862415
45	124	62	483.7633129077
45	126	63	503.03421694819
45	128	64	524.25191849161
45	130	65	544.16985847822
45	132	66	565.19157198046
45	134	67	583.33748922039
45	136	68	595.38933462375
45	138	69	606.14350797643
45	140	70	615.01619555079
45	142	71	623.43271102291
45	144	72	634.36146801066
45	146	73	646.85214109768
45	148	74	661.62004460415
45	150	75	678.87600322014
45	152	76	698.14194710646
45	154	77	719.93347498513
45	156	78	740.87333503147
45	158	79	761.18006927229
45	160	80	783.23827909506
45	162	81	804.54706875914
45	164	82	826.48149773376
45	166	83	846.57537400303
45	168	84	867.4866680906
45	170	85	889.51840835074
45	172	86	908.94226688102
45	174	87	928.39929153679
45	176	88	948.54694307888
45	178	89	969.27252799356
45	180	90	990.61087936797
45	182	91	1011.5082781521
45	184	92	1032.4590028155
45	186	93	1054.6078510357
45	188	94	1074.7740329091
45	190	95	1095.6451663268

