version 2
run General-14-20200211-12:44:41-39082
attr configname General
attr datetime 20200211-12:44:41
attr experiment General
attr inifile omnetpp.ini
attr iterationvars $0=14
attr iterationvarsf 14-
attr measurement $0=14
attr network scenario
attr processid 39082
attr repetition 0
attr replication #0
attr resultdir veins-runall-output
attr runnumber 14
attr seedset 14
param *.playgroundSizeX 10672m
param *.playgroundSizeY 7105m
param *.playgroundSizeZ 10000m
param *.annotations.draw false
param *.world.useTorus false
param *.world.use2D false
param *.manager.updateInterval 1s
param *.manager.host "\"localhost\""
param *.manager.port 9999
param *.manager.moduleType "\"org.car2x.veins.nodes.Car\""
param *.manager.moduleName "\"node\""
param *.manager.moduleDisplayString "\"\""
param *.manager.autoShutdown true
param *.manager.margin 25
param *.manager.launchConfig "xmldoc(\"sumo-launchd.launch.xml\")"
param *.manager.trafficLightModuleType "\"org.car2x.veins.nodes.TrafficLight\""
param *.manager.trafficLightModuleName "\"trafficLight\""
param *.manager.trafficLightModuleDisplayString default
param *.manager.trafficLightFilter "\"10\""
param *.manager.ignoreGuiCommands true
param *.trafficLight[*].mobility.x 0
param *.trafficLight[*].mobility.y 0
param *.trafficLight[*].mobility.z 3
param *.trafficLight[*].applType "\"org.car2x.veins.subprojects.veins_testsims.traci.TraCITrafficLightApp\""
param *.trafficLight[*].logicType "\"org.car2x.veins.subprojects.veins_testsims.traci.TraCITrafficLightTestLogic\""
param *.trafficLight[*].appl.headerLength "80 bit"
param *.trafficLight[*].appl.sendBeacons false
param *.trafficLight[*].appl.dataOnSch true
param *.connectionManager.sendDirect true
param *.connectionManager.maxInterfDist 2600m
param *.connectionManager.drawMaxIntfDist false
param *.**.nic.mac1609_4.useServiceChannel false
param *.**.nic.mac1609_4.txPower 20mW
param *.**.nic.mac1609_4.bitrate 18Mbps
param *.**.nic.phy80211p.minPowerLevel -110dBm
param *.**.nic.phy80211p.useNoiseFloor true
param *.**.nic.phy80211p.noiseFloor -98dBm
param *.**.nic.phy80211p.decider "xmldoc(\"config.xml\")"
param *.**.nic.phy80211p.analogueModels "xmldoc(\"config.xml\")"
param *.**.nic.phy80211p.usePropagationDelay true
param *.node[*].applType "\"org.car2x.veins.subprojects.veins_testsims.traci.TraCITestApp\""
param *.node[0].appl.testNumber 14
param *.node[*].appl.testNumber -1
param *.node[*].veinsmobilityType "\"org.car2x.veins.modules.mobility.traci.TraCIMobility\""
param *.node[*].veinsmobility.x 0
param *.node[*].veinsmobility.y 0
param *.node[*].veinsmobility.z 1.895
param *.node[*].veinsmobility.accidentCount 0
param *.node[*].veinsmobility.setHostSpeed true

vector 0 scenario.node[0].veinsmobility posx ETV
vector 1 scenario.node[0].veinsmobility posy ETV
vector 2 scenario.node[0].veinsmobility speed ETV
vector 3 scenario.node[0].veinsmobility acceleration ETV
vector 4 scenario.node[0].veinsmobility co2emission ETV
vector 5 scenario.node[1].veinsmobility posx ETV
vector 6 scenario.node[1].veinsmobility posy ETV
vector 7 scenario.node[1].veinsmobility speed ETV
vector 8 scenario.node[1].veinsmobility acceleration ETV
vector 9 scenario.node[1].veinsmobility co2emission ETV
vector 10 scenario.node[2].veinsmobility posx ETV
vector 11 scenario.node[2].veinsmobility posy ETV
vector 12 scenario.node[2].veinsmobility speed ETV
vector 13 scenario.node[2].veinsmobility acceleration ETV
vector 14 scenario.node[2].veinsmobility co2emission ETV
vector 15 scenario.node[3].veinsmobility posx ETV
vector 16 scenario.node[3].veinsmobility posy ETV
vector 17 scenario.node[3].veinsmobility speed ETV
vector 18 scenario.node[3].veinsmobility acceleration ETV
vector 19 scenario.node[3].veinsmobility co2emission ETV
vector 20 scenario.node[4].veinsmobility posx ETV
vector 21 scenario.node[4].veinsmobility posy ETV
vector 22 scenario.node[4].veinsmobility speed ETV
vector 23 scenario.node[4].veinsmobility acceleration ETV
vector 24 scenario.node[4].veinsmobility co2emission ETV
vector 25 scenario.node[5].veinsmobility posx ETV
vector 26 scenario.node[5].veinsmobility posy ETV
vector 27 scenario.node[5].veinsmobility speed ETV
vector 28 scenario.node[5].veinsmobility acceleration ETV
vector 29 scenario.node[5].veinsmobility co2emission ETV
vector 30 scenario.node[6].veinsmobility posx ETV
vector 31 scenario.node[6].veinsmobility posy ETV
vector 32 scenario.node[6].veinsmobility speed ETV
vector 33 scenario.node[6].veinsmobility acceleration ETV
vector 34 scenario.node[6].veinsmobility co2emission ETV
vector 35 scenario.node[7].veinsmobility posx ETV
vector 36 scenario.node[7].veinsmobility posy ETV
vector 37 scenario.node[7].veinsmobility speed ETV
vector 38 scenario.node[7].veinsmobility acceleration ETV
vector 39 scenario.node[7].veinsmobility co2emission ETV
vector 40 scenario.node[8].veinsmobility posx ETV
vector 41 scenario.node[8].veinsmobility posy ETV
vector 42 scenario.node[8].veinsmobility speed ETV
vector 43 scenario.node[8].veinsmobility acceleration ETV
vector 44 scenario.node[8].veinsmobility co2emission ETV
4	6	3	9.0549579066719
4	8	4	8.4988778463559
4	10	5	0.046631045706452
4	12	6	1.346729538445
4	14	7	6.8698411864162
4	16	8	6.3845112230278
4	18	9	10.609141425341
4	20	10	-0.62763525208726
4	22	11	0.973
4	24	12	0.973
4	26	13	2.5952595437055
4	28	14	2.7670023027096
4	30	15	5.3924401196808
4	32	16	6.0493772054228
4	34	17	6.3640666143155
4	36	18	9.9282474831938
4	38	19	8.7027100032447
4	40	20	13.968042916732
4	42	21	14.996359573269
4	44	22	13.81851554496
4	46	23	16.143735028907
4	48	24	17.881786454173
4	50	25	20.359691345793
4	52	26	22.646097904598
4	54	27	-0.707935673254
4	56	28	10.69111669374
4	58	29	0.973
4	60	30	12.892987351033
4	62	31	0.973
4	64	32	4.3465146531251
4	66	33	11.995564277744
4	68	34	8.95962128717
4	70	35	1.291939627666
4	72	36	3.6257707714849
4	74	37	9.1575941603104
4	76	38	1.9506600438733
4	78	39	1.8459858356143
4	80	40	10.07131871608
4	82	41	6.117858727332
4	84	42	4.0683323653584
4	86	43	2.9720182905125
4	88	44	3.6807649007901
4	90	45	11.740415573078
3	6	3	0.52293095912319
3	8	4	0.42359790159389
3	10	5	-0.69673392002005
3	12	6	-0.50619142258074
3	14	7	0.25186112383381
3	16	8	0.1763841798529
3	18	9	0.71072384552099
3	20	10	-0.7868874395499
3	22	11	-30.09311904697
3	24	12	0
3	26	13	2.383408399648
3	28	14	1.5443964181468
3	30	15	2.5338259593118
3	32	16	2.151066170074
3	34	17	1.8430190352956
3	36	18	2.5486900090473
3	38	19	1.8380230438197
3	40	20	2.7195812815335
3	42	21	2.515225986368
3	44	22	2.0013756500557
3	46	23	2.1495438009733
3	48	24	2.1690884674899
3	50	25	2.2709616017528
3	52	26	2.3159453824328
3	54	27	-0.79931711324025
3	56	28	0.72010953607969
3	58	29	-0.95613441278692
3	60	30	1.0115896674106
3	62	31	-1.288658154197
3	64	32	-0.081923894234933
3	66	33	0.92324440763332
3	68	34	0.48240846942645
3	70	35	-0.53113030199893
3	72	36	-0.20612035389058
3	74	37	0.52156763069797
3	76	38	-0.43808835558593
3	78	39	-0.44074191909749
3	80	40	0.65862785512581
3	82	41	0.11651006375905
3	84	42	-0.15504761959892
3	86	43	-0.29476078238804
3	88	44	-0.19081634504255
3	90	45	0.86154521314893
2	4	2	29.997433819196
2	6	3	30.520364778319
2	8	4	30.943962679913
2	10	5	30.247228759893
2	12	6	29.741037337312
2	14	7	29.992898461146
2	16	8	30.169282640999
2	18	9	30.88000648652
2	20	10	30.09311904697
2	22	11	0
2	24	12	0
2	26	13	2.383408399648
2	28	14	3.9278048177948
2	30	15	6.4616307771066
2	32	16	8.6126969471807
2	34	17	10.455715982476
2	36	18	13.004405991524
2	38	19	14.842429035343
2	40	20	17.562010316877
2	42	21	20.077236303245
2	44	22	22.0786119533
2	46	23	24.228155754274
2	48	24	26.397244221764
2	50	25	28.668205823516
2	52	26	30.984151205949
2	54	27	30.184834092709
2	56	28	30.904943628789
2	58	29	29.948809216002
2	60	30	30.960398883412
2	62	31	29.671740729215
2	64	32	29.58981683498
2	66	33	30.513061242614
2	68	34	30.99546971204
2	70	35	30.464339410041
2	72	36	30.258219056151
2	74	37	30.779786686849
2	76	38	30.341698331263
2	78	39	29.900956412165
2	80	40	30.559584267291
2	82	41	30.67609433105
2	84	42	30.521046711451
2	86	43	30.226285929063
2	88	44	30.035469584021
2	90	45	30.89701479717
1	2	1	76.65
1	4	2	76.65
1	6	3	76.65
1	8	4	76.65
1	10	5	76.65
1	12	6	76.65
1	14	7	76.65
1	16	8	76.65
1	18	9	76.65
1	20	10	76.65
1	22	11	76.65
1	24	12	76.65
1	26	13	76.65
1	28	14	76.65
1	30	15	76.65
1	32	16	76.65
1	34	17	76.65
1	36	18	76.65
1	38	19	76.65
1	40	20	76.65
1	42	21	76.65
1	44	22	76.65
1	46	23	76.65
1	48	24	76.65
1	50	25	76.65
1	52	26	76.65
1	54	27	76.65
1	56	28	76.65
1	58	29	76.65
1	60	30	76.65
1	62	31	76.65
1	64	32	76.65
1	66	33	76.65
1	68	34	76.65
1	70	35	76.65
1	72	36	76.65
1	74	37	76.65
1	76	38	76.65
1	78	39	76.65
1	80	40	76.65
1	82	41	76.65
1	84	42	76.65
1	86	43	76.65
1	88	44	76.65
1	90	45	76.65
0	2	1	27.6
0	4	2	27.6
0	6	3	57.597433819196
0	8	4	88.117798597515
0	10	5	119.06176127743
0	12	6	149.30899003732
0	14	7	179.05002737463
0	16	8	209.04292583578
0	18	9	239.21220847678
0	20	10	270.0922149633
0	22	11	300.18533401027
0	24	12	300.18533401027
0	26	13	300.18533401027
0	28	14	302.56874240992
0	30	15	306.49654722771
0	32	16	312.95817800482
0	34	17	321.570874952
0	36	18	332.02659093448
0	38	19	345.030996926
0	40	20	359.87342596134
0	42	21	377.43543627822
0	44	22	397.51267258146
0	46	23	419.59128453476
0	48	24	443.81944028904
0	50	25	470.2166845108
0	52	26	498.88489033432
0	54	27	529.86904154027
0	56	28	560.05387563298
0	58	29	590.95881926176
0	60	30	620.90762847777
0	62	31	651.86802736118
0	64	32	681.53976809039
0	66	33	711.12958492537
0	68	34	741.64264616799
0	70	35	772.63811588003
0	72	36	803.10245529007
0	74	37	833.36067434622
0	76	38	864.14046103307
0	78	39	894.48215936433
0	80	40	924.3831157765
0	82	41	954.94270004379
0	84	42	985.61879437484
0	86	43	1016.1398410863
0	88	44	1046.3661270154
0	90	45	1076.4015965994
vector 45 scenario.node[9].veinsmobility posx ETV
vector 46 scenario.node[9].veinsmobility posy ETV
vector 47 scenario.node[9].veinsmobility speed ETV
vector 48 scenario.node[9].veinsmobility acceleration ETV
vector 49 scenario.node[9].veinsmobility co2emission ETV
9	16	8	0.973
9	18	9	7.571291812718
9	20	10	5.5542453148332
9	22	11	1.4446197809318
9	24	12	8.6315642222256
9	26	13	9.2060826741665
9	28	14	0.973
9	30	15	0.973
9	32	16	0.973
9	34	17	0.973
9	36	18	0.973
9	38	19	10.99454912859
9	40	20	4.6211309822305
9	42	21	10.921984206034
9	44	22	11.364325148085
9	46	23	12.462480454742
9	48	24	15.690845552313
9	50	25	18.722084689284
9	52	26	24.742702214971
9	54	27	8.3091731849699
9	56	28	0.973
9	58	29	4.2701048215325
9	60	30	10.368813933513
9	62	31	6.5199012956322
9	64	32	0.26348671844206
9	66	33	8.1758242816904
9	68	34	0.973
9	70	35	12.96885926761
9	72	36	-0.10283645381016
9	74	37	4.6251791918359
9	76	38	9.9320444496715
9	78	39	0.973
9	80	40	4.293712094635
9	82	41	11.022284358618
9	84	42	1.8064529814015
9	86	43	9.7920455313975
9	88	44	-0.49542952425149
9	90	45	7.175801898232
9	92	46	3.3041774110164
9	94	47	4.6512048607523
9	96	48	-0.045478732054493
8	16	8	-0.89912858465686
8	18	9	0.44805449608248
8	20	10	0.14435671095271
8	22	11	-0.4477252420038
8	24	12	0.58708500838839
8	26	13	0.63133426685818
8	28	14	-1.0425417660736
8	30	15	-3.3686795083569
8	32	16	-6.2223987267426
8	34	17	-4.5072397773061
8	36	18	-2.0034739972398
8	38	19	2.5518582622753
8	40	20	0.67322180122801
8	42	21	2.0525514733745
8	44	22	1.8883902603993
8	46	23	1.8773579627741
8	48	24	2.2044036233565
8	50	25	2.4056281558005
8	52	26	2.9278098356444
8	54	27	0.50658534774387
8	56	28	-1.1252299435437
8	58	29	-0.027187720988877
8	60	30	0.82356644805986
8	62	31	0.25436424650252
8	64	32	-0.63145854882896
8	66	33	0.49934186926112
8	68	34	-0.91773413890041
8	70	35	1.1692987476708
8	72	36	-0.68615060881712
8	74	37	0.0050356012070552
8	76	38	0.73234529723413
8	78	39	-1.2770192582393
8	80	40	-0.021746827522293
8	82	41	0.91510820807889
8	84	42	-0.4056365552824
8	86	43	0.71707845409401
8	88	44	-0.74252155283466
8	90	45	0.36312700272538
8	92	46	-0.19106717489194
8	94	47	0.0050541210221127
8	96	48	-0.66896398121025
7	14	7	28.609053899346
7	16	8	27.709925314689
7	18	9	28.157979810772
7	20	10	28.302336521724
7	22	11	27.854611279721
7	24	12	28.441696288109
7	26	13	29.073030554967
7	28	14	28.030488788894
7	30	15	24.661809280537
7	32	16	18.439410553794
7	34	17	13.932170776488
7	36	18	11.928696779248
7	38	19	14.480555041524
7	40	20	15.153776842752
7	42	21	17.206328316126
7	44	22	19.094718576525
7	46	23	20.972076539299
7	48	24	23.176480162656
7	50	25	25.582108318456
7	52	26	28.509918154101
7	54	27	29.016503501845
7	56	28	27.891273558301
7	58	29	27.864085837312
7	60	30	28.687652285372
7	62	31	28.942016531875
7	64	32	28.310557983046
7	66	33	28.809899852307
7	68	34	27.892165713406
7	70	35	29.061464461077
7	72	36	28.37531385226
7	74	37	28.380349453467
7	76	38	29.112694750701
7	78	39	27.835675492462
7	80	40	27.81392866494
7	82	41	28.729036873019
7	84	42	28.323400317736
7	86	43	29.04047877183
7	88	44	28.297957218995
7	90	45	28.661084221721
7	92	46	28.470017046829
7	94	47	28.475071167851
7	96	48	27.806107186641
6	12	6	76.65
6	14	7	76.65
6	16	8	76.65
6	18	9	76.65
6	20	10	76.65
6	22	11	76.65
6	24	12	76.65
6	26	13	76.65
6	28	14	76.65
6	30	15	76.65
6	32	16	76.65
6	34	17	76.65
6	36	18	76.65
6	38	19	76.65
6	40	20	76.65
6	42	21	76.65
6	44	22	76.65
6	46	23	76.65
6	48	24	76.65
6	50	25	76.65
6	52	26	76.65
6	54	27	76.65
6	56	28	76.65
6	58	29	76.65
6	60	30	76.65
6	62	31	76.65
6	64	32	76.65
6	66	33	76.65
6	68	34	76.65
6	70	35	76.65
6	72	36	76.65
6	74	37	76.65
6	76	38	76.65
6	78	39	76.65
6	80	40	76.65
6	82	41	76.65
6	84	42	76.65
6	86	43	76.65
6	88	44	76.65
6	90	45	76.65
6	92	46	76.65
6	94	47	76.65
6	96	48	76.65
5	12	6	27.6
5	14	7	27.6
5	16	8	56.209053899346
5	18	9	83.918979214035
5	20	10	112.07695902481
5	22	11	140.37929554653
5	24	12	168.23390682625
5	26	13	196.67560311436
5	28	14	225.74863366933
5	30	15	253.77912245822
5	32	16	278.44093173876
5	34	17	296.88034229255
5	36	18	310.81251306904
5	38	19	322.74120984829
5	40	20	337.22176488981
5	42	21	352.37554173256
5	44	22	369.58187004869
5	46	23	388.67658862522
5	48	24	409.64866516451
5	50	25	432.82514532717
5	52	26	458.40725364563
5	54	27	486.91717179973
5	56	28	515.93367530157
5	58	29	543.82494885987
5	60	30	571.68903469719
5	62	31	600.37668698256
5	64	32	629.31870351443
5	66	33	657.62926149748
5	68	34	686.43916134978
5	70	35	714.33132706319
5	72	36	743.39279152427
5	74	37	771.76810537653
5	76	38	800.14845483
5	78	39	829.2611495807
5	80	40	857.09682507316
5	82	41	884.9107537381
5	84	42	913.63979061112
5	86	43	941.96319092885
5	88	44	971.00366970068
5	90	45	999.30162691968
5	92	46	1027.9627111414
5	94	47	1056.4327281882
5	96	48	1084.9077993561
14	26	13	0.973
14	28	14	4.3729879805779
14	30	15	8.8381248682011
14	32	16	6.1443901092633
14	34	17	0.15586116913647
14	36	18	6.3080158955641
14	38	19	8.8384403009795
14	40	20	0.973
14	42	21	7.6862374597264
14	44	22	0.042708215375593
14	46	23	9.7577764754124
14	48	24	4.6910520918145
14	50	25	0.973
14	52	26	14.164860058738
14	54	27	-0.73887345635859
14	56	28	8.414700456414
14	58	29	0.973
14	60	30	1.8910044658606
14	62	31	9.2614485980119
14	64	32	3.8380167674443
14	66	33	1.1088404374297
14	68	34	13.170197573243
14	70	35	1.4016198570329
14	72	36	7.3091818646709
14	74	37	0.973
14	76	38	11.942640740858
14	78	39	2.6700811360106
14	80	40	6.3832977497972
14	82	41	5.1918317937604
14	84	42	0.973
14	86	43	11.976162339161
14	88	44	1.1011250748862
14	90	45	7.7812037811748
14	92	46	3.6360046522576
14	94	47	2.2594736756806
14	96	48	5.7405172556759
14	98	49	0.973
14	100	50	4.8699131565925
13	26	13	-1.0121632965747
13	28	14	0.014476087060757
13	30	15	0.6544062285684
13	32	16	0.24133810924832
13	34	17	-0.63323444430716
13	36	18	0.28271973493975
13	38	19	0.62254243553616
13	40	20	-0.95441451715305
13	42	21	0.48051058023702
13	44	22	-0.64709407940973
13	46	23	0.7798517269548
13	48	24	0.02825856639538
13	50	25	-0.827412582119
13	52	26	1.3806626497535
13	54	27	-0.77263653965201
13	56	28	0.55895096913446
13	58	29	-0.89114320732187
13	60	30	-0.36281619407237
13	62	31	0.7172758692177
13	64	32	-0.087725587072782
13	66	33	-0.48545344825834
13	68	34	1.2430385258049
13	70	35	-0.45878219499718
13	72	36	0.39367909147404
13	74	37	-1.111741525121
13	76	38	1.0724822402699
13	78	39	-0.27359216858167
13	80	40	0.26116982975509
13	82	41	0.083515225094743
13	84	42	-0.95575129275676
13	86	43	1.0635402618209
13	88	44	-0.50385496532544
13	90	45	0.45731448428705
13	92	46	-0.14038894081023
13	94	47	-0.33230139012448
13	96	48	0.17427008715458
13	98	49	-0.99573981051799
13	100	50	0.084213377907872
12	24	12	28.185867935272
12	26	13	27.173704638697
12	28	14	27.188180725758
12	30	15	27.842586954326
12	32	16	28.083925063575
12	34	17	27.450690619267
12	36	18	27.733410354207
12	38	19	28.355952789743
12	40	20	27.40153827259
12	42	21	27.882048852827
12	44	22	27.234954773418
12	46	23	28.014806500372
12	48	24	28.043065066768
12	50	25	27.215652484649
12	52	26	28.596315134402
12	54	27	27.82367859475
12	56	28	28.382629563885
12	58	29	27.491486356563
12	60	30	27.12867016249
12	62	31	27.845946031708
12	64	32	27.758220444635
12	66	33	27.272766996377
12	68	34	28.515805522182
12	70	35	28.057023327185
12	72	36	28.450702418659
12	74	37	27.338960893538
12	76	38	28.411443133808
12	78	39	28.137850965226
12	80	40	28.399020794981
12	82	41	28.482536020076
12	84	42	27.526784727319
12	86	43	28.59032498914
12	88	44	28.086470023814
12	90	45	28.543784508101
12	92	46	28.403395567291
12	94	47	28.071094177167
12	96	48	28.245364264321
12	98	49	27.249624453803
12	100	50	27.333837831711
11	22	11	76.65
11	24	12	76.65
11	26	13	76.65
11	28	14	76.65
11	30	15	76.65
11	32	16	76.65
11	34	17	76.65
11	36	18	76.65
11	38	19	76.65
11	40	20	76.65
11	42	21	76.65
11	44	22	76.65
11	46	23	76.65
11	48	24	76.65
11	50	25	76.65
11	52	26	76.65
11	54	27	76.65
11	56	28	76.65
11	58	29	76.65
11	60	30	76.65
11	62	31	76.65
11	64	32	76.65
11	66	33	76.65
11	68	34	76.65
11	70	35	76.65
11	72	36	76.65
11	74	37	76.65
11	76	38	76.65
11	78	39	76.65
11	80	40	76.65
11	82	41	76.65
11	84	42	76.65
11	86	43	76.65
11	88	44	76.65
11	90	45	76.65
11	92	46	76.65
11	94	47	76.65
11	96	48	76.65
11	98	49	76.65
11	100	50	76.65
10	22	11	27.6
10	24	12	27.6
10	26	13	55.785867935272
10	28	14	82.959572573969
10	30	15	110.14775329973
10	32	16	137.99034025405
10	34	17	166.07426531763
10	36	18	193.52495593689
10	38	19	221.2583662911
10	40	20	249.61431908085
10	42	21	277.01585735344
10	44	22	304.89790620626
10	46	23	332.13286097968
10	48	24	360.14766748005
10	50	25	388.19073254682
10	52	26	415.40638503147
10	54	27	444.00270016587
10	56	28	471.82637876062
10	58	29	500.20900832451
10	60	30	527.70049468107
10	62	31	554.82916484356
10	64	32	582.67511087527
10	66	33	610.4333313199
10	68	34	637.70609831628
10	70	35	666.22190383846
10	72	36	694.27892716565
10	74	37	722.7296295843
10	76	38	750.06859047784
10	78	39	778.48003361165
10	80	40	806.61788457688
10	82	41	835.01690537186
10	84	42	863.49944139193
10	86	43	891.02622611925
10	88	44	919.61655110839
10	90	45	947.70302113221
10	92	46	976.24680564031
10	94	47	1004.6502012076
10	96	48	1032.7212953848
10	98	49	1060.9666596491
10	100	50	1088.2162841029
19	36	18	0.973
19	38	19	8.7656023505817
19	40	20	2.8067614496698
19	42	21	2.4722530214755
19	44	22	6.1995125269225
19	46	23	5.1887010820362
19	48	24	0.57091125970782
19	50	25	8.1093958229171
19	52	26	3.6349840271494
19	54	27	2.963801088355
19	56	28	11.009952282484
19	58	29	0.973
19	60	30	9.8708227968914
19	62	31	0.973
19	64	32	8.2638344137316
19	66	33	1.447709497637
19	68	34	9.7662920073525
19	70	35	3.9362820928605
19	72	36	3.0507348879885
19	74	37	-0.26314758624878
19	76	38	13.474512201954
19	78	39	0.973
19	80	40	8.1601509392387
19	82	41	9.5297656236652
19	84	42	0.070515044746596
19	86	43	9.8005707827161
19	88	44	2.3878507627799
19	90	45	0.973
19	92	46	12.828985099464
19	94	47	0.973
19	96	48	13.534816598956
19	98	49	0.973
19	100	50	6.1941150496454
19	102	51	9.3043846262227
19	104	52	5.1813406041148
19	106	53	0.973
19	108	54	3.6496507704585
19	110	55	12.065336768713
18	36	18	-1.0027814763598
18	38	19	0.6573272900423
18	40	20	-0.23075939028058
18	42	21	-0.27363085106481
18	44	22	0.28272506373469
18	46	23	0.12425474915653
18	48	24	-0.56181455100887
18	50	25	0.56438334728591
18	52	26	-0.1063350563636
18	54	27	-0.20159571559634
18	56	28	0.9536039235536
18	58	29	-1.0254450095817
18	60	30	0.80102453066502
18	62	31	-1.086547487299
18	64	32	0.59208064712584
18	66	33	-0.42830911232159
18	68	34	0.79419417993631
18	70	35	-0.072674487135373
18	72	36	-0.1987882516114
18	74	37	-0.68884672655258
18	76	38	1.3163176212693
18	78	39	-1.4494212112622
18	80	40	0.58496512274724
18	82	41	0.74337057117373
18	84	42	-0.64551850757562
18	86	43	0.77474302402698
18	88	44	-0.30785499501508
18	90	45	-0.98799380217679
18	92	46	1.2263470472535
18	94	47	-1.2886357532116
18	96	48	1.3271742666839
18	98	49	-1.3001260320889
18	100	50	0.29437607713044
18	102	51	0.72207479376812
18	104	52	0.10376351641025
18	106	53	-0.80223134346306
18	108	54	-0.092115196399391
18	110	55	1.1079443434719
17	34	17	27.968599276575
17	36	18	26.965817800215
17	38	19	27.623145090257
17	40	20	27.392385699977
17	42	21	27.118754848912
17	44	22	27.401479912647
17	46	23	27.525734661803
17	48	24	26.963920110794
17	50	25	27.52830345808
17	52	26	27.421968401717
17	54	27	27.22037268612
17	56	28	28.173976609674
17	58	29	27.148531600092
17	60	30	27.949556130757
17	62	31	26.863008643458
17	64	32	27.455089290584
17	66	33	27.026780178263
17	68	34	27.820974358199
17	70	35	27.748299871063
17	72	36	27.549511619452
17	74	37	26.860664892899
17	76	38	28.176982514169
17	78	39	26.727561302907
17	80	40	27.312526425654
17	82	41	28.055896996827
17	84	42	27.410378489252
17	86	43	28.185121513279
17	88	44	27.877266518264
17	90	45	26.889272716087
17	92	46	28.11561976334
17	94	47	26.826984010129
17	96	48	28.154158276813
17	98	49	26.854032244724
17	100	50	27.148408321854
17	102	51	27.870483115622
17	104	52	27.974246632033
17	106	53	27.17201528857
17	108	54	27.07990009217
17	110	55	28.187844435642
16	32	16	76.65
16	34	17	76.65
16	36	18	76.65
16	38	19	76.65
16	40	20	76.65
16	42	21	76.65
16	44	22	76.65
16	46	23	76.65
16	48	24	76.65
16	50	25	76.65
16	52	26	76.65
16	54	27	76.65
16	56	28	76.65
16	58	29	76.65
16	60	30	76.65
16	62	31	76.65
16	64	32	76.65
16	66	33	76.65
16	68	34	76.65
16	70	35	76.65
16	72	36	76.65
16	74	37	76.65
16	76	38	76.65
16	78	39	76.65
16	80	40	76.65
16	82	41	76.65
16	84	42	76.65
16	86	43	76.65
16	88	44	76.65
16	90	45	76.65
16	92	46	76.65
16	94	47	76.65
16	96	48	76.65
16	98	49	76.65
16	100	50	76.65
16	102	51	76.65
16	104	52	76.65
16	106	53	76.65
16	108	54	76.65
16	110	55	76.65
15	32	16	27.6
15	34	17	27.6
15	36	18	55.568599276575
15	38	19	82.53441707679
15	40	20	110.15756216705
15	42	21	137.54994786702
15	44	22	164.66870271594
15	46	23	192.07018262858
15	48	24	219.59591729039
15	50	25	246.55983740118
15	52	26	274.08814085926
15	54	27	301.51010926098
15	56	28	328.7304819471
15	58	29	356.90445855677
15	60	30	384.05299015686
15	62	31	412.00254628762
15	64	32	438.86555493108
15	66	33	466.32064422166
15	68	34	493.34742439993
15	70	35	521.16839875813
15	72	36	548.91669862919
15	74	37	576.46621024864
15	76	38	603.32687514154
15	78	39	631.50385765571
15	80	40	658.23141895862
15	82	41	685.54394538427
15	84	42	713.5998423811
15	86	43	741.01022087035
15	88	44	769.19534238363
15	90	45	797.07260890189
15	92	46	823.96188161798
15	94	47	852.07750138132
15	96	48	878.90448539145
15	98	49	907.05864366826
15	100	50	933.91267591298
15	102	51	961.06108423484
15	104	52	988.93156735046
15	106	53	1016.9058139825
15	108	54	1044.0778292711
15	110	55	1071.1577293632
24	46	23	1.7198140054505
24	48	24	6.1081315522163
24	50	25	0.45128873086585
24	52	26	3.9248539072026
24	54	27	5.9903169423355
24	56	28	5.5287536501706
24	58	29	0.973
24	60	30	6.9005996942308
24	62	31	3.9870705996061
24	64	32	4.3386203286207
24	66	33	5.9502423264433
24	68	34	0.973
24	70	35	8.1743975914508
24	72	36	0.973
24	74	37	4.8898721467262
24	76	38	1.8587983089488
24	78	39	4.527102138655
24	80	40	5.2123049142352
24	82	41	1.745994452582
24	84	42	2.0419565334504
24	86	43	6.4982850792953
24	88	44	7.3483369933454
24	90	45	4.3959947610159
24	92	46	1.768243271352
24	94	47	1.4280448798813
24	96	48	2.4475985003079
24	98	49	5.1640988506559
24	100	50	4.2755080105945
24	102	51	1.013178120201
24	104	52	5.2881888331409
24	106	53	6.0844221085587
24	108	54	3.6035393349352
24	110	55	1.3057498636085
24	112	56	4.4383015731522
24	114	57	5.9657330584892
24	116	58	3.1977142476819
24	118	59	0.973
24	120	60	4.0672038891292
24	122	61	7.9080639078181
24	124	62	0.973
24	126	63	3.5748533645159
24	128	64	9.3806506302237
24	130	65	1.4340181937877
24	132	66	0.973
24	134	67	9.956146106329
23	46	23	-0.30073112924583
23	48	24	0.45402796100825
23	50	25	-0.52526372484863
23	52	26	0.090403794078156
23	54	27	0.43355912924744
23	56	28	0.3361811946379
23	58	29	-0.91208067757543
23	60	30	0.59132538351696
23	62	31	0.080537687055767
23	64	32	0.13591427961364
23	66	33	0.39341069350485
23	68	34	-0.85389557224698
23	70	35	0.77651144843549
23	72	36	-1.1093280364294
23	74	37	0.2558161719935
23	76	38	-0.27306042762939
23	78	39	0.19515560218133
23	80	40	0.30186700634658
23	82	41	-0.29774682840798
23	84	42	-0.23933204147033
23	86	43	0.52740151877515
23	88	44	0.63593910983764
23	90	45	0.12743186764419
23	92	46	-0.3108863462694
23	94	47	-0.36182881006971
23	96	48	-0.17904916265979
23	98	49	0.28449927968904
23	100	50	0.12509937188588
23	102	51	-0.43066736951005
23	104	52	0.30601686460432
23	106	53	0.42147204943467
23	108	54	-0.0016296909889206
23	110	55	-0.38590885838494
23	112	56	0.15067353285849
23	114	57	0.3930231006816
23	116	58	-0.073654469568282
23	118	59	-0.96514462935738
23	120	60	0.10819701931905
23	122	61	0.73513708845712
23	124	62	-1.053137519164
23	126	63	0.031929343007505
23	128	64	0.98918219015468
23	130	65	-0.36271409341134
23	132	66	-0.84150595776737
23	134	67	1.0963905384997
22	44	22	23.648041684041
22	46	23	23.347310554796
22	48	24	23.801338515804
22	50	25	23.276074790955
22	52	26	23.366478585033
22	54	27	23.800037714281
22	56	28	24.136218908919
22	58	29	23.224138231343
22	60	30	23.81546361486
22	62	31	23.896001301916
22	64	32	24.03191558153
22	66	33	24.425326275035
22	68	34	23.571430702788
22	70	35	24.347942151223
22	72	36	23.238614114794
22	74	37	23.494430286787
22	76	38	23.221369859158
22	78	39	23.416525461339
22	80	40	23.718392467686
22	82	41	23.420645639278
22	84	42	23.181313597807
22	86	43	23.708715116583
22	88	44	24.34465422642
22	90	45	24.472086094064
22	92	46	24.161199747795
22	94	47	23.799370937725
22	96	48	23.620321775065
22	98	49	23.904821054755
22	100	50	24.02992042664
22	102	51	23.59925305713
22	104	52	23.905269921735
22	106	53	24.326741971169
22	108	54	24.32511228018
22	110	55	23.939203421795
22	112	56	24.089876954654
22	114	57	24.482900055336
22	116	58	24.409245585767
22	118	59	23.44410095641
22	120	60	23.552297975729
22	122	61	24.287435064186
22	124	62	23.234297545022
22	126	63	23.26622688803
22	128	64	24.255409078184
22	130	65	23.892694984773
22	132	66	23.051189027006
22	134	67	24.147579565505
21	42	21	76.65
21	44	22	76.65
21	46	23	76.65
21	48	24	76.65
21	50	25	76.65
21	52	26	76.65
21	54	27	76.65
21	56	28	76.65
21	58	29	76.65
21	60	30	76.65
21	62	31	76.65
21	64	32	76.65
21	66	33	76.65
21	68	34	76.65
21	70	35	76.65
21	72	36	76.65
21	74	37	76.65
21	76	38	76.65
21	78	39	76.65
21	80	40	76.65
21	82	41	76.65
21	84	42	76.65
21	86	43	76.65
21	88	44	76.65
21	90	45	76.65
21	92	46	76.65
21	94	47	76.65
21	96	48	76.65
21	98	49	76.65
21	100	50	76.65
21	102	51	76.65
21	104	52	76.65
21	106	53	76.65
21	108	54	76.65
21	110	55	76.65
21	112	56	76.65
21	114	57	76.65
21	116	58	76.65
21	118	59	76.65
21	120	60	76.65
21	122	61	76.65
21	124	62	76.65
21	126	63	76.65
21	128	64	76.65
21	130	65	76.65
21	132	66	76.65
21	134	67	76.65
20	42	21	27.6
20	44	22	27.6
20	46	23	51.248041684041
20	48	24	74.595352238837
20	50	25	98.396690754641
20	52	26	121.6727655456
20	54	27	145.03924413063
20	56	28	168.83928184491
20	58	29	192.97550075383
20	60	30	216.19963898517
20	62	31	240.01510260003
20	64	32	263.91110390195
20	66	33	287.94301948348
20	68	34	312.36834575851
20	70	35	335.9397764613
20	72	36	360.28771861252
20	74	37	383.52633272732
20	76	38	407.0207630141
20	78	39	430.24213287326
20	80	40	453.6586583346
20	82	41	477.37705080229
20	84	42	500.79769644157
20	86	43	523.97901003937
20	88	44	547.68772515596
20	90	45	572.03237938238
20	92	46	596.50446547644
20	94	47	620.66566522423
20	96	48	644.46503616196
20	98	49	668.08535793703
20	100	50	691.99017899178
20	102	51	716.02009941842
20	104	52	739.61935247555
20	106	53	763.52462239729
20	108	54	787.85136436846
20	110	55	812.17647664864
20	112	56	836.11568007043
20	114	57	860.20555702508
20	116	58	884.68845708042
20	118	59	909.09770266619
20	120	60	932.5418036226
20	122	61	956.09410159833
20	124	62	980.38153666251
20	126	63	1003.6158342075
20	128	64	1026.8820610956
20	130	65	1051.1374701737
20	132	66	1075.0301651585
20	134	67	1098.0813541855
29	56	28	5.754529403278
29	58	29	4.9858038120998
29	60	30	1.031036190352
29	62	31	3.9208490831598
29	64	32	9.9739360157494
29	66	33	2.5921328459627
29	68	34	1.9494837929084
29	70	35	6.2717509011951
29	72	36	0.75737292440548
29	74	37	0.973
29	76	38	0.973
29	78	39	0.973
29	80	40	0.973
29	82	41	8.4223199000134
29	84	42	2.9281333282192
29	86	43	0.41592730906699
29	88	44	5.9728826027048
29	90	45	5.0681883086478
29	92	46	5.3576619170345
29	94	47	0.61479623067375
29	96	48	0.973
29	98	49	2.3412152167452
29	100	50	6.257924846604
29	102	51	1.5814724147851
29	104	52	5.569907126326
29	106	53	6.7640200119805
29	108	54	6.9420407660705
29	110	55	0.31325633108979
29	112	56	0.1051164024409
29	114	57	6.0075361873272
29	116	58	0.69746648146096
29	118	59	12.505306628105
29	120	60	0.973
29	122	61	3.0395060794321
29	124	62	11.936610345211
29	126	63	0.973
29	128	64	7.400128892536
29	130	65	10.940608410538
29	132	66	1.3533774501324
29	134	67	0.973
29	136	68	9.4217399120976
28	56	28	0.015538307838142
28	58	29	-0.081297066179104
28	60	30	-0.58373815915547
28	62	31	-0.19247061456554
28	64	32	0.58180507365614
28	66	33	-0.37649380008224
28	68	34	-0.4496219297871
28	70	35	0.12753275607247
28	72	36	-0.60011269094382
28	74	37	-2.2372043342234
28	76	38	-1.8666038743331
28	78	39	-0.88246409666379
28	80	40	-1.4544273696087
28	82	41	0.79813658843798
28	84	42	-0.12302821659915
28	86	43	-0.54070837008434
28	88	44	0.3995761904422
28	90	45	0.23477445670241
28	92	46	0.27064712193841
28	94	47	-0.51219944749306
28	96	48	-0.95379862713348
28	98	49	-0.18718813662542
28	100	50	0.48479888040955
28	102	51	-0.32627806758252
28	104	52	0.3625810006371
28	106	53	0.53930768706484
28	108	54	0.53800117188364
28	110	55	-0.56216437207381
28	112	56	-0.59117396971884
28	114	57	0.42047897420685
28	116	58	-0.4863789142693
28	118	59	1.446044799406
28	120	60	-1.5350595011842
28	122	61	-0.069662571651904
28	124	62	1.3730365229615
28	126	63	-2.5390186692304
28	128	64	0.73060473353014
28	130	65	1.2544923450045
28	132	66	-0.37679074213739
28	134	67	-1.2634338331666
28	136	68	1.0417645958391
27	54	27	31.846806130587
27	56	28	31.862344438425
27	58	29	31.781047372246
27	60	30	31.197309213091
27	62	31	31.004838598525
27	64	32	31.586643672181
27	66	33	31.210149872099
27	68	34	30.760527942312
27	70	35	30.888060698384
27	72	36	30.28794800744
27	74	37	28.050743673217
27	76	38	26.184139798884
27	78	39	25.30167570222
27	80	40	23.847248332611
27	82	41	24.645384921049
27	84	42	24.52235670445
27	86	43	23.981648334366
27	88	44	24.381224524808
27	90	45	24.615998981511
27	92	46	24.886646103449
27	94	47	24.374446655956
27	96	48	23.420648028822
27	98	49	23.233459892197
27	100	50	23.718258772607
27	102	51	23.391980705024
27	104	52	23.754561705661
27	106	53	24.293869392726
27	108	54	24.83187056461
27	110	55	24.269706192536
27	112	56	23.678532222817
27	114	57	24.099011197024
27	116	58	23.612632282754
27	118	59	25.05867708216
27	120	60	23.523617580976
27	122	61	23.453955009324
27	124	62	24.826991532286
27	126	63	22.287972863055
27	128	64	23.018577596586
27	130	65	24.27306994159
27	132	66	23.896279199453
27	134	67	22.632845366286
27	136	68	23.674609962125
26	52	26	76.65
26	54	27	76.65
26	56	28	76.65
26	58	29	76.65
26	60	30	76.65
26	62	31	76.65
26	64	32	76.65
26	66	33	76.65
26	68	34	76.65
26	70	35	76.65
26	72	36	76.65
26	74	37	76.65
26	76	38	76.65
26	78	39	76.65
26	80	40	76.65
26	82	41	76.65
26	84	42	76.65
26	86	43	76.65
26	88	44	76.65
26	90	45	76.65
26	92	46	76.65
26	94	47	76.65
26	96	48	76.65
26	98	49	76.65
26	100	50	76.65
26	102	51	76.65
26	104	52	76.65
26	106	53	76.65
26	108	54	76.65
26	110	55	76.65
26	112	56	76.65
26	114	57	76.65
26	116	58	76.65
26	118	59	76.65
26	120	60	76.65
26	122	61	76.65
26	124	62	76.65
26	126	63	76.65
26	128	64	76.65
26	130	65	76.65
26	132	66	76.65
26	134	67	76.65
26	136	68	76.65
25	52	26	27.6
25	54	27	27.6
25	56	28	59.446806130587
25	58	29	91.309150569012
25	60	30	123.09019794126
25	62	31	154.28750715435
25	64	32	185.29234575287
25	66	33	216.87898942505
25	68	34	248.08913929715
25	70	35	278.84966723947
25	72	36	309.73772793785
25	74	37	340.02567594529
25	76	38	368.07641961851
25	78	39	394.26055941739
25	80	40	419.56223511961
25	82	41	443.40948345222
25	84	42	468.05486837327
25	86	43	492.57722507772
25	88	44	516.55887341209
25	90	45	540.9400979369
25	92	46	565.55609691841
25	94	47	590.44274302186
25	96	48	614.81718967781
25	98	49	638.23783770663
25	100	50	661.47129759883
25	102	51	685.18955637144
25	104	52	708.58153707646
25	106	53	732.33609878212
25	108	54	756.62996817485
25	110	55	781.46183873946
25	112	56	805.73154493199
25	114	57	829.41007715481
25	116	58	853.50908835183
25	118	59	877.12172063459
25	120	60	902.18039771675
25	122	61	925.70401529773
25	124	62	949.15797030705
25	126	63	973.98496183934
25	128	64	996.27293470239
25	130	65	1019.291512299
25	132	66	1043.5645822406
25	134	67	1067.46086144
25	136	68	1090.0937068063
34	66	33	3.8659757209588
34	68	34	4.869130155239
34	70	35	6.6523318641192
34	72	36	4.0811594471718
34	74	37	4.973427140971
34	76	38	0.973
34	78	39	9.8094229342761
34	80	40	3.3228718243464
34	82	41	1.4928146284383
34	84	42	7.0967178833183
34	86	43	4.2854456911528
34	88	44	0.973
34	90	45	9.3725080437424
34	92	46	6.5647243143918
34	94	47	1.0259727849738
34	96	48	7.3542482545017
34	98	49	0.53017418395225
34	100	50	3.8946058523337
34	102	51	0.86172166417287
34	104	52	4.5250030313861
34	106	53	10.342099991995
34	108	54	2.9111613001241
34	110	55	1.0098376468133
34	112	56	1.0796112352758
34	114	57	3.9689261551926
34	116	58	7.1238313891786
34	118	59	2.688899999901
34	120	60	7.2941722738981
34	122	61	2.5501896678026
34	124	62	0.973
34	126	63	8.1414677505579
34	128	64	5.231406787189
34	130	65	0.23549292149332
34	132	66	4.4795450051944
34	134	67	7.3232382144525
34	136	68	4.7043839775205
34	138	69	4.9018421409191
34	140	70	0.973
34	142	71	9.4296810193319
34	144	72	1.1644157908762
34	146	73	0.973
33	66	33	0.0067289869766682
33	68	34	0.16412850120105
33	70	35	0.43124269670807
33	72	36	0.018435291945934
33	74	37	0.15459434653167
33	76	38	-1.1266257794341
33	78	39	0.93837723357137
33	80	40	-0.09857725049369
33	82	41	-0.38471141410992
33	84	42	0.50225478142966
33	86	43	0.049769596662372
33	88	44	-1.1674585333094
33	90	45	0.88366261927877
33	92	46	0.40771611733362
33	94	47	-0.46501464222092
33	96	48	0.52964636567049
33	98	49	-0.54512605711352
33	100	50	0.00048761896323413
33	102	51	-0.4827599383425
33	104	52	0.11784127377905
33	106	53	0.99742116685957
33	108	54	-0.17324090225156
33	110	55	-0.46719461283647
33	112	56	-0.44726961641572
33	114	57	0.028696292429231
33	116	58	0.51885979087092
33	118	59	-0.19209125242196
33	120	60	0.52689009311143
33	122	61	-0.22339877451304
33	124	62	-0.84427532320842
33	126	63	0.68628164730035
33	128	64	0.20581445493735
33	130	65	-0.58825385186356
33	132	66	0.10487160540652
33	134	67	0.53853202611208
33	136	68	0.11405919806566
33	138	69	0.13954503822606
33	140	70	-0.77450496051461
33	142	71	0.85260412457865
33	144	72	-0.44612863962539
33	146	73	-0.78595060436055
32	64	32	25.286518999395
32	66	33	25.293247986372
32	68	34	25.457376487573
32	70	35	25.888619184281
32	72	36	25.907054476227
32	74	37	26.061648822758
32	76	38	24.935023043324
32	78	39	25.873400276896
32	80	40	25.774823026402
32	82	41	25.390111612292
32	84	42	25.892366393722
32	86	43	25.942135990384
32	88	44	24.774677457075
32	90	45	25.658340076354
32	92	46	26.066056193687
32	94	47	25.601041551466
32	96	48	26.130687917137
32	98	49	25.585561860023
32	100	50	25.586049478986
32	102	51	25.103289540644
32	104	52	25.221130814423
32	106	53	26.218551981283
32	108	54	26.045311079031
32	110	55	25.578116466195
32	112	56	25.130846849779
32	114	57	25.159543142208
32	116	58	25.678402933079
32	118	59	25.486311680657
32	120	60	26.013201773768
32	122	61	25.789802999255
32	124	62	24.945527676047
32	126	63	25.631809323347
32	128	64	25.837623778285
32	130	65	25.249369926421
32	132	66	25.354241531828
32	134	67	25.89277355794
32	136	68	26.006832756005
32	138	69	26.146377794231
32	140	70	25.371872833717
32	142	71	26.224476958295
32	144	72	25.77834831867
32	146	73	24.99239771431
31	62	31	76.65
31	64	32	76.65
31	66	33	76.65
31	68	34	76.65
31	70	35	76.65
31	72	36	76.65
31	74	37	76.65
31	76	38	76.65
31	78	39	76.65
31	80	40	76.65
31	82	41	76.65
31	84	42	76.65
31	86	43	76.65
31	88	44	76.65
31	90	45	76.65
31	92	46	76.65
31	94	47	76.65
31	96	48	76.65
31	98	49	76.65
31	100	50	76.65
31	102	51	76.65
31	104	52	76.65
31	106	53	76.65
31	108	54	76.65
31	110	55	76.65
31	112	56	76.65
31	114	57	76.65
31	116	58	76.65
31	118	59	76.65
31	120	60	76.65
31	122	61	76.65
31	124	62	76.65
31	126	63	76.65
31	128	64	76.65
31	130	65	76.65
31	132	66	76.65
31	134	67	76.65
31	136	68	76.65
31	138	69	76.65
31	140	70	76.65
31	142	71	76.65
31	144	72	76.65
31	146	73	76.65
30	62	31	27.6
30	64	32	27.6
30	66	33	52.886518999395
30	68	34	78.179766985767
30	70	35	103.63714347334
30	72	36	129.52576265762
30	74	37	155.43281713385
30	76	38	181.49446595661
30	78	39	206.42948899993
30	80	40	232.30288927683
30	82	41	258.07771230323
30	84	42	283.46782391552
30	86	43	309.36019030924
30	88	44	335.30232629963
30	90	45	360.0770037567
30	92	46	385.73534383305
30	94	47	411.80140002674
30	96	48	437.40244157821
30	98	49	463.53312949534
30	100	50	489.11869135537
30	102	51	514.70474083435
30	104	52	539.808030375
30	106	53	565.02916118942
30	108	54	591.2477131707
30	110	55	617.29302424973
30	112	56	642.87114071593
30	114	57	668.00198756571
30	116	58	693.16153070792
30	118	59	718.839933641
30	120	60	744.32624532165
30	122	61	770.33944709542
30	124	62	796.12925009468
30	126	63	821.07477777072
30	128	64	846.70658709407
30	130	65	872.54421087235
30	132	66	897.79358079878
30	134	67	923.1478223306
30	136	68	949.04059588854
30	138	69	975.04742864455
30	140	70	1001.1938064388
30	142	71	1026.5656792725
30	144	72	1052.7901562308
30	146	73	1078.5685045495
39	76	38	0.73712323631422
39	78	39	1.3896159070603
39	80	40	7.3173596862876
39	82	41	2.119478329721
39	84	42	1.9386744159695
39	86	43	4.8955871524551
39	88	44	3.3095543103842
39	90	45	0.973
39	92	46	1.9099105514865
39	94	47	6.8270036259174
39	96	48	0.973
39	98	49	4.4204285356083
39	100	50	1.3056079752968
39	102	51	5.7922086849496
39	104	52	0.973
39	106	53	0.973
39	108	54	7.659483167757
39	110	55	3.4614970027863
39	112	56	2.4380716880753
39	114	57	0.973
39	116	58	4.4121905058949
39	118	59	1.5068832013012
39	120	60	5.9378432991832
39	122	61	1.2590270340116
39	124	62	4.5263315480078
39	126	63	1.4204905375033
39	128	64	5.7372836740934
39	130	65	0.973
39	132	66	4.4549789340499
39	134	67	4.6712135790973
39	136	68	0.973
39	138	69	2.3696602266013
39	140	70	0.86184468013914
39	142	71	3.5443452852854
39	144	72	6.209611948172
39	146	73	0.973
39	148	74	9.9928394178167
39	150	75	0.973
39	152	76	3.9588772255225
39	154	77	0.973
39	156	78	3.0677815566281
39	158	79	3.4670396140075
39	160	80	7.9906771409392
39	162	81	0.973
39	164	82	4.0465793824584
39	166	83	6.0562687512502
39	168	84	2.262423853815
39	170	85	0.973
39	172	86	2.6516191777447
39	174	87	3.9125723024707
39	176	88	7.4100381895995
39	178	89	2.2987597321051
38	76	38	-0.43818811245728
38	78	39	-0.3013278124854
38	80	40	0.84511111630127
38	82	41	-0.16961397102568
38	84	42	-0.20055549102835
38	86	43	0.37030611606315
38	88	44	0.05726610228885
38	90	45	-0.57725403900258
38	92	46	-0.19808275694959
38	94	47	0.74696799076628
38	96	48	-0.62867380154785
38	98	49	0.29169913439546
38	100	50	-0.32226631301455
38	102	51	0.55083996977191
38	104	52	-0.59953900950495
38	106	53	-0.61950187990442
38	108	54	0.94006586435717
38	110	55	0.099053472164087
38	112	56	-0.10118197649717
38	114	57	-0.91222534677945
38	116	58	0.32111263519619
38	118	59	-0.27004000532907
38	120	60	0.61244448891375
38	122	61	-0.32645201298874
38	124	62	0.32746105757542
38	126	63	-0.2939576280769
38	128	64	0.55598515144084
38	130	65	-0.59665142919403
38	132	66	0.31405833817553
38	134	67	0.34060332539957
38	136	68	-0.50856721645687
38	138	69	-0.099744728417136
38	140	70	-0.40326045546681
38	142	71	0.15092241566163
38	144	72	0.65944390499499
38	146	73	-0.865519272862
38	148	74	1.3683234828059
38	150	75	-0.99420011218172
38	152	76	0.21962950041052
38	154	77	-0.64277756027877
38	156	78	0.05913303012494
38	158	79	0.13723439304158
38	160	80	0.99428879830521
38	162	81	-0.79914625547826
38	164	82	0.23805866972543
38	166	83	0.6082238353556
38	168	84	-0.13774369389284
38	170	85	-0.69106468046084
38	172	86	-0.03777529578656
38	174	87	0.2127778865397
38	176	88	0.86027337738778
38	178	89	-0.13619402144104
37	74	37	21.058876605129
37	76	38	20.620688492672
37	78	39	20.319360680186
37	80	40	21.164471796487
37	82	41	20.994857825462
37	84	42	20.794302334433
37	86	43	21.164608450497
37	88	44	21.221874552785
37	90	45	20.644620513783
37	92	46	20.446537756833
37	94	47	21.1935057476
37	96	48	20.564831946052
37	98	49	20.856531080447
37	100	50	20.534264767433
37	102	51	21.085104737205
37	104	52	20.4855657277
37	106	53	19.866063847795
37	108	54	20.806129712152
37	110	55	20.905183184316
37	112	56	20.804001207819
37	114	57	19.89177586104
37	116	58	20.212888496236
37	118	59	19.942848490907
37	120	60	20.555292979821
37	122	61	20.228840966832
37	124	62	20.556302024407
37	126	63	20.26234439633
37	128	64	20.818329547771
37	130	65	20.221678118577
37	132	66	20.535736456753
37	134	67	20.876339782152
37	136	68	20.367772565695
37	138	69	20.268027837278
37	140	70	19.864767381812
37	142	71	20.015689797473
37	144	72	20.675133702468
37	146	73	19.809614429606
37	148	74	21.177937912412
37	150	75	20.18373780023
37	152	76	20.403367300641
37	154	77	19.760589740362
37	156	78	19.819722770487
37	158	79	19.956957163529
37	160	80	20.951245961834
37	162	81	20.152099706355
37	164	82	20.390158376081
37	166	83	20.998382211437
37	168	84	20.860638517544
37	170	85	20.169573837083
37	172	86	20.131798541296
37	174	87	20.344576427836
37	176	88	21.204849805224
37	178	89	21.068655783783
36	72	36	76.65
36	74	37	76.65
36	76	38	76.65
36	78	39	76.65
36	80	40	76.65
36	82	41	76.65
36	84	42	76.65
36	86	43	76.65
36	88	44	76.65
36	90	45	76.65
36	92	46	76.65
36	94	47	76.65
36	96	48	76.65
36	98	49	76.65
36	100	50	76.65
36	102	51	76.65
36	104	52	76.65
36	106	53	76.65
36	108	54	76.65
36	110	55	76.65
36	112	56	76.65
36	114	57	76.65
36	116	58	76.65
36	118	59	76.65
36	120	60	76.65
36	122	61	76.65
36	124	62	76.65
36	126	63	76.65
36	128	64	76.65
36	130	65	76.65
36	132	66	76.65
36	134	67	76.65
36	136	68	76.65
36	138	69	76.65
36	140	70	76.65
36	142	71	76.65
36	144	72	76.65
36	146	73	76.65
36	148	74	76.65
36	150	75	76.65
36	152	76	76.65
36	154	77	76.65
36	156	78	76.65
36	158	79	76.65
36	160	80	76.65
36	162	81	76.65
36	164	82	76.65
36	166	83	76.65
36	168	84	76.65
36	170	85	76.65
36	172	86	76.65
36	174	87	76.65
36	176	88	76.65
36	178	89	76.65
35	72	36	27.6
35	74	37	27.6
35	76	38	48.658876605129
35	78	39	69.2795650978
35	80	40	89.598925777987
35	82	41	110.76339757447
35	84	42	131.75825539994
35	86	43	152.55255773437
35	88	44	173.71716618487
35	90	45	194.93904073765
35	92	46	215.58366125143
35	94	47	236.03019900827
35	96	48	257.22370475587
35	98	49	277.78853670192
35	100	50	298.64506778237
35	102	51	319.1793325498
35	104	52	340.264437287
35	106	53	360.7500030147
35	108	54	380.6160668625
35	110	55	401.42219657465
35	112	56	422.32737975897
35	114	57	443.13138096679
35	116	58	463.02315682783
35	118	59	483.23604532406
35	120	60	503.17889381497
35	122	61	523.73418679479
35	124	62	543.96302776162
35	126	63	564.51932978603
35	128	64	584.78167418236
35	130	65	605.60000373013
35	132	66	625.82168184871
35	134	67	646.35741830546
35	136	68	667.23375808761
35	138	69	687.60153065331
35	140	70	707.86955849059
35	142	71	727.7343258724
35	144	72	747.75001566987
35	146	73	768.42514937234
35	148	74	788.23476380194
35	150	75	809.41270171436
35	152	76	829.59643951459
35	154	77	849.99980681523
35	156	78	869.76039655559
35	158	79	889.58011932608
35	160	80	909.53707648961
35	162	81	930.48832245144
35	164	82	950.64042215779
35	166	83	971.03058053388
35	168	84	992.02896274531
35	170	85	1012.8896012629
35	172	86	1033.0591750999
35	174	87	1053.1909736412
35	176	88	1073.5355500691
35	178	89	1094.7403998743
44	86	43	6.1374001617388
44	88	44	3.6762054318944
44	90	45	6.0341875913163
44	92	46	2.6093679010173
44	94	47	0.973
44	96	48	9.0662131405596
44	98	49	-0.47813214836388
44	100	50	0.973
44	102	51	0.973
44	104	52	0.973
44	106	53	0.49896200401633
44	108	54	0.973
44	110	55	6.4569956718897
44	112	56	0.973
44	114	57	1.1210531808996
44	116	58	0.973
44	118	59	1.2689907870201
44	120	60	7.3527530028655
44	122	61	0.973
44	124	62	8.6277115667594
44	126	63	1.5394689093933
44	128	64	0.973
44	130	65	4.6047924815614
44	132	66	0.973
44	134	67	6.7011559096017
44	136	68	10.115776255144
44	138	69	0.973
44	140	70	2.2201629015696
44	142	71	4.4880674980212
44	144	72	0.973
44	146	73	7.9945720539057
44	148	74	0.973
44	150	75	13.936748770403
44	152	76	0.973
44	154	77	8.8972464192422
44	156	78	0.973
44	158	79	0.973
44	160	80	7.1883397804815
44	162	81	7.3780405631336
44	164	82	0.973
44	166	83	4.6557102119571
44	168	84	9.305054356462
44	170	85	0.973
44	172	86	1.5014309458763
44	174	87	0.973
44	176	88	9.8381120502699
44	178	89	3.7094023448667
44	180	90	2.0945268034017
43	86	43	0.19699452503119
43	88	44	-0.14997472520918
43	90	45	0.1807910297066
43	92	46	-0.29991266538855
43	94	47	-0.92771272128448
43	96	48	0.65003760822583
43	98	49	-0.73238766577463
43	100	50	-2.5074289095964
43	102	51	-1.3507954435596
43	104	52	-1.1134487659708
43	106	53	-0.50377738834611
43	108	54	-0.74620902839595
43	110	55	0.61586654156127
43	112	56	-1.0243632037183
43	114	57	-0.36257894157832
43	116	58	-0.73002307168165
43	118	59	-0.31508248236467
43	120	60	0.8965221065176
43	122	61	-0.48905968268182
43	124	62	1.1001304742864
43	126	63	-0.2824169964851
43	128	64	-0.61733872245346
43	130	65	0.33979357363935
43	132	66	-1.1636811728943
43	134	67	0.78824942387454
43	136	68	1.3508350124865
43	138	69	-1.6034667827699
43	140	70	-0.11990153269052
43	142	71	0.3365817718214
43	144	72	-0.66043540118998
43	146	73	1.0255531772301
43	148	74	-1.1837298806815
43	150	75	2.0987685106112
43	152	76	-1.5878240987348
43	154	77	1.163179734238
43	156	78	-1.0918859082085
43	158	79	-0.66007224194373
43	160	80	0.89124636237266
43	162	81	0.86377682281806
43	164	82	-1.1540291677933
43	166	83	0.36729945443377
43	168	84	1.2049781825831
43	170	85	-0.81907355799529
43	172	86	-0.27992943431531
43	174	87	-0.81312023011224
43	176	88	1.3611888349525
43	178	89	0.14108539874065
43	180	90	-0.17238334274786
42	84	42	28.798798441959
42	86	43	28.99579296699
42	88	44	28.845818241781
42	90	45	29.026609271487
42	92	46	28.726696606099
42	94	47	27.798983884814
42	96	48	28.44902149304
42	98	49	27.716633827265
42	100	50	25.209204917669
42	102	51	23.858409474109
42	104	52	22.744960708139
42	106	53	22.241183319793
42	108	54	21.494974291397
42	110	55	22.110840832958
42	112	56	21.08647762924
42	114	57	20.723898687661
42	116	58	19.99387561598
42	118	59	19.678793133615
42	120	60	20.575315240133
42	122	61	20.086255557451
42	124	62	21.186386031737
42	126	63	20.903969035252
42	128	64	20.286630312799
42	130	65	20.626423886438
42	132	66	19.462742713544
42	134	67	20.250992137418
42	136	68	21.601827149905
42	138	69	19.998360367135
42	140	70	19.878458834444
42	142	71	20.215040606266
42	144	72	19.554605205076
42	146	73	20.580158382306
42	148	74	19.396428501624
42	150	75	21.495197012235
42	152	76	19.907372913501
42	154	77	21.070552647739
42	156	78	19.97866673953
42	158	79	19.318594497586
42	160	80	20.209840859959
42	162	81	21.073617682777
42	164	82	19.919588514984
42	166	83	20.286887969418
42	168	84	21.491866152001
42	170	85	20.672792594005
42	172	86	20.39286315969
42	174	87	19.579742929578
42	176	88	20.94093176453
42	178	89	21.082017163271
42	180	90	20.909633820523
41	82	41	76.65
41	84	42	76.65
41	86	43	76.65
41	88	44	76.65
41	90	45	76.65
41	92	46	76.65
41	94	47	76.65
41	96	48	76.65
41	98	49	76.65
41	100	50	76.65
41	102	51	76.65
41	104	52	76.65
41	106	53	76.65
41	108	54	76.65
41	110	55	76.65
41	112	56	76.65
41	114	57	76.65
41	116	58	76.65
41	118	59	76.65
41	120	60	76.65
41	122	61	76.65
41	124	62	76.65
41	126	63	76.65
41	128	64	76.65
41	130	65	76.65
41	132	66	76.65
41	134	67	76.65
41	136	68	76.65
41	138	69	76.65
41	140	70	76.65
41	142	71	76.65
41	144	72	76.65
41	146	73	76.65
41	148	74	76.65
41	150	75	76.65
41	152	76	76.65
41	154	77	76.65
41	156	78	76.65
41	158	79	76.65
41	160	80	76.65
41	162	81	76.65
41	164	82	76.65
41	166	83	76.65
41	168	84	76.65
41	170	85	76.65
41	172	86	76.65
41	174	87	76.65
41	176	88	76.65
41	178	89	76.65
41	180	90	76.65
40	82	41	27.6
40	84	42	27.6
40	86	43	56.398798441959
40	88	44	85.394591408949
40	90	45	114.24040965073
40	92	46	143.26701892222
40	94	47	171.99371552832
40	96	48	199.79269941313
40	98	49	228.24172090617
40	100	50	255.95835473344
40	102	51	281.1675596511
40	104	52	305.02596912521
40	106	53	327.77092983335
40	108	54	350.01211315315
40	110	55	371.50708744454
40	112	56	393.6179282775
40	114	57	414.70440590674
40	116	58	435.4283045944
40	118	59	455.42218021038
40	120	60	475.10097334399
40	122	61	495.67628858413
40	124	62	515.76254414158
40	126	63	536.94893017332
40	128	64	557.85289920857
40	130	65	578.13952952137
40	132	66	598.7659534078
40	134	67	618.22869612135
40	136	68	638.47968825877
40	138	69	660.08151540867
40	140	70	680.07987577581
40	142	71	699.95833461025
40	144	72	720.17337521651
40	146	73	739.72798042159
40	148	74	760.3081388039
40	150	75	779.70456730552
40	152	76	801.19976431776
40	154	77	821.10713723126
40	156	78	842.177689879
40	158	79	862.15635661853
40	160	80	881.47495111611
40	162	81	901.68479197607
40	164	82	922.75840965885
40	166	83	942.67799817383
40	168	84	962.96488614325
40	170	85	984.45675229525
40	172	86	1005.1295448893
40	174	87	1025.5224080489
40	176	88	1045.1021509785
40	178	89	1066.0430827431
40	180	90	1087.1250999063
49	96	48	2.9030584082569
49	98	49	15.328823635641
49	100	50	6.7314192349311
49	102	51	0.973
49	104	52	5.2882217432122
49	106	53	13.302259717603
49	108	54	10.307825199506
49	110	55	0.973
49	112	56	0.973
49	114	57	0.973
49	116	58	0.973
49	118	59	0.973
49	120	60	0.973
49	122	61	9.3638879041238
49	124	62	0.973
49	126	63	9.9377085245773
49	128	64	4.3686176114098
49	130	65	0.973
49	132	66	9.0770552608839
49	134	67	0.973
49	136	68	3.4828720552068
49	138	69	10.643764699307
49	140	70	0.973
49	142	71	0.973
49	144	72	3.5724295445098
49	146	73	0.973
49	148	74	9.0798034044303
49	150	75	1.4617990022357
49	152	76	12.211271522463
49	154	77	0.973
49	156	78	7.173621170146
49	158	79	5.8196669266205
49	160	80	0.973
49	162	81	0.973
49	164	82	12.128079341686
49	166	83	0.973
49	168	84	8.1365625358161
49	170	85	8.1481121537046
49	172	86	0.63389559658903
49	174	87	0.973
49	176	88	0.973
49	178	89	9.8789921947775
49	180	90	3.8260382714751
49	182	91	0.973
49	184	92	18.41712473747
48	96	48	-0.42849456577096
48	98	49	1.0061981094768
48	100	50	-0.0088635730789974
48	102	51	-1.2469660477946
48	104	52	-0.12315748434048
48	106	53	0.80601603048854
48	108	54	0.42190301965456
48	110	55	-1.8992782005854
48	112	56	-2.2031512297022
48	114	57	-4.2238527256027
48	116	58	-1.7491058230365
48	118	59	-1.9236355805669
48	120	60	-1.4109947433783
48	122	61	1.1125731999229
48	124	62	-2.4951554358588
48	126	63	1.3251952388556
48	128	64	0.24007389876058
48	130	65	-1.3641662761724
48	132	66	1.1563531980358
48	134	67	-2.2195186892629
48	136	68	0.15963657943335
48	138	69	1.5146635930287
48	140	70	-0.55990141518244
48	142	71	-0.57504766260556
48	144	72	0.1565421348155
48	146	73	-0.60689584216368
48	148	74	1.2376855347228
48	150	75	-0.28744089936344
48	152	76	1.700850711842
48	154	77	-2.574044031493
48	156	78	0.87617547849251
48	158	79	0.56546208482584
48	160	80	-1.0960989088355
48	162	81	-0.52074336327774
48	164	82	1.7946939861035
48	166	83	-1.4646741105411
48	168	84	1.0448810014917
48	170	85	0.96837098774171
48	172	86	-0.46554948839734
48	174	87	-0.64291889039428
48	176	88	-0.99184168122805
48	178	89	1.3704687428226
48	180	90	0.16360138734047
48	182	91	-0.68109356558299
48	184	92	2.7020484628156
47	94	47	34.552777803829
47	96	48	34.124283238058
47	98	49	35.130481347535
47	100	50	35.121617774456
47	102	51	33.874651726661
47	104	52	33.751494242321
47	106	53	34.557510272809
47	108	54	34.979413292464
47	110	55	33.080135091879
47	112	56	30.876983862176
47	114	57	26.653131136574
47	116	58	24.904025313537
47	118	59	22.98038973297
47	120	60	21.569394989592
47	122	61	22.681968189515
47	124	62	20.186812753656
47	126	63	21.512007992512
47	128	64	21.752081891272
47	130	65	20.3879156151
47	132	66	21.544268813136
47	134	67	19.324750123873
47	136	68	19.484386703306
47	138	69	20.999050296335
47	140	70	20.439148881152
47	142	71	19.864101218547
47	144	72	20.020643353362
47	146	73	19.413747511199
47	148	74	20.651433045921
47	150	75	20.363992146558
47	152	76	22.0648428584
47	154	77	19.490798826907
47	156	78	20.366974305399
47	158	79	20.932436390225
47	160	80	19.83633748139
47	162	81	19.315594118112
47	164	82	21.110288104216
47	166	83	19.645613993674
47	168	84	20.690494995166
47	170	85	21.658865982908
47	172	86	21.193316494511
47	174	87	20.550397604116
47	176	88	19.558555922888
47	178	89	20.929024665711
47	180	90	21.092626053051
47	182	91	20.411532487468
47	184	92	23.113580950284
46	92	46	76.65
46	94	47	76.65
46	96	48	76.65
46	98	49	76.65
46	100	50	76.65
46	102	51	76.65
46	104	52	76.65
46	106	53	76.65
46	108	54	76.65
46	110	55	76.65
46	112	56	76.65
46	114	57	76.65
46	116	58	76.65
46	118	59	76.65
46	120	60	76.65
46	122	61	76.65
46	124	62	76.65
46	126	63	76.65
46	128	64	76.65
46	130	65	76.65
46	132	66	76.65
46	134	67	76.65
46	136	68	76.65
46	138	69	76.65
46	140	70	76.65
46	142	71	76.65
46	144	72	76.65
46	146	73	76.65
46	148	74	76.65
46	150	75	76.65
46	152	76	76.65
46	154	77	76.65
46	156	78	76.65
46	158	79	76.65
46	160	80	76.65
46	162	81	76.65
46	164	82	76.65
46	166	83	76.65
46	168	84	76.65
46	170	85	76.65
46	172	86	76.65
46	174	87	76.65
46	176	88	76.65
46	178	89	76.65
46	180	90	76.65
46	182	91	76.65
46	184	92	76.65
45	92	46	27.6
45	94	47	27.6
45	96	48	62.152777803829
45	98	49	96.277061041887
45	100	50	131.40754238942
45	102	51	166.52916016388
45	104	52	200.40381189054
45	106	53	234.15530613286
45	108	54	268.71281640567
45	110	55	303.69222969813
45	112	56	336.77236479001
45	114	57	367.64934865219
45	116	58	394.30247978876
45	118	59	419.2065051023
45	120	60	442.18689483527
45	122	61	463.75628982486
45	124	62	486.43825801438
45	126	63	506.62507076803
45	128	64	528.13707876054
45	130	65	549.88916065182
45	132	66	570.27707626692
45	134	67	591.82134508005
45	136	68	611.14609520392
45	138	69	630.63048190723
45	140	70	651.62953220356
45	142	71	672.06868108472
45	144	72	691.93278230326
45	146	73	711.95342565663
45	148	74	731.36717316782
45	150	75	752.01860621375
45	152	76	772.3825983603
45	154	77	794.4474412187
45	156	78	813.93824004561
45	158	79	834.30521435101
45	160	80	855.23765074124
45	162	81	875.07398822263
45	164	82	894.38958234074
45	166	83	915.49987044495
45	168	84	935.14548443863
45	170	85	955.83597943379
45	172	86	977.4948454167
45	174	87	998.68816191121
45	176	88	1019.2385595153
45	178	89	1038.7971154382
45	180	90	1059.7261401039
45	182	91	1080.818766157
45	184	92	1101.2302986444

