version 2
run General-16-20200211-12:44:42-39082
attr configname General
attr datetime 20200211-12:44:42
attr experiment General
attr inifile omnetpp.ini
attr iterationvars $0=16
attr iterationvarsf 16-
attr measurement $0=16
attr network scenario
attr processid 39082
attr repetition 0
attr replication #0
attr resultdir veins-runall-output
attr runnumber 16
attr seedset 16
param *.playgroundSizeX 10672m
param *.playgroundSizeY 7105m
param *.playgroundSizeZ 10000m
param *.annotations.draw false
param *.world.useTorus false
param *.world.use2D false
param *.manager.updateInterval 1s
param *.manager.host "\"localhost\""
param *.manager.port 9999
param *.manager.moduleType "\"org.car2x.veins.nodes.Car\""
param *.manager.moduleName "\"node\""
param *.manager.moduleDisplayString "\"\""
param *.manager.autoShutdown true
param *.manager.margin 25
param *.manager.launchConfig "xmldoc(\"sumo-launchd.launch.xml\")"
param *.manager.trafficLightModuleType "\"org.car2x.veins.nodes.TrafficLight\""
param *.manager.trafficLightModuleName "\"trafficLight\""
param *.manager.trafficLightModuleDisplayString default
param *.manager.trafficLightFilter "\"10\""
param *.manager.ignoreGuiCommands true
param *.trafficLight[*].mobility.x 0
param *.trafficLight[*].mobility.y 0
param *.trafficLight[*].mobility.z 3
param *.trafficLight[*].applType "\"org.car2x.veins.subprojects.veins_testsims.traci.TraCITrafficLightApp\""
param *.trafficLight[*].logicType "\"org.car2x.veins.subprojects.veins_testsims.traci.TraCITrafficLightTestLogic\""
param *.trafficLight[*].appl.headerLength "80 bit"
param *.trafficLight[*].appl.sendBeacons false
param *.trafficLight[*].appl.dataOnSch true
param *.connectionManager.sendDirect true
param *.connectionManager.maxInterfDist 2600m
param *.connectionManager.drawMaxIntfDist false
param *.**.nic.mac1609_4.useServiceChannel false
param *.**.nic.mac1609_4.txPower 20mW
param *.**.nic.mac1609_4.bitrate 18Mbps
param *.**.nic.phy80211p.minPowerLevel -110dBm
param *.**.nic.phy80211p.useNoiseFloor true
param *.**.nic.phy80211p.noiseFloor -98dBm
param *.**.nic.phy80211p.decider "xmldoc(\"config.xml\")"
param *.**.nic.phy80211p.analogueModels "xmldoc(\"config.xml\")"
param *.**.nic.phy80211p.usePropagationDelay true
param *.node[*].applType "\"org.car2x.veins.subprojects.veins_testsims.traci.TraCITestApp\""
param *.node[0].appl.testNumber 16
param *.node[*].appl.testNumber -1
param *.node[*].veinsmobilityType "\"org.car2x.veins.modules.mobility.traci.TraCIMobility\""
param *.node[*].veinsmobility.x 0
param *.node[*].veinsmobility.y 0
param *.node[*].veinsmobility.z 1.895
param *.node[*].veinsmobility.accidentCount 0
param *.node[*].veinsmobility.setHostSpeed true

vector 0 scenario.node[0].veinsmobility posx ETV
vector 1 scenario.node[0].veinsmobility posy ETV
vector 2 scenario.node[0].veinsmobility speed ETV
vector 3 scenario.node[0].veinsmobility acceleration ETV
vector 4 scenario.node[0].veinsmobility co2emission ETV
vector 5 scenario.node[1].veinsmobility posx ETV
vector 6 scenario.node[1].veinsmobility posy ETV
vector 7 scenario.node[1].veinsmobility speed ETV
vector 8 scenario.node[1].veinsmobility acceleration ETV
vector 9 scenario.node[1].veinsmobility co2emission ETV
vector 10 scenario.node[2].veinsmobility posx ETV
vector 11 scenario.node[2].veinsmobility posy ETV
vector 12 scenario.node[2].veinsmobility speed ETV
vector 13 scenario.node[2].veinsmobility acceleration ETV
vector 14 scenario.node[2].veinsmobility co2emission ETV
vector 15 scenario.node[3].veinsmobility posx ETV
vector 16 scenario.node[3].veinsmobility posy ETV
vector 17 scenario.node[3].veinsmobility speed ETV
vector 18 scenario.node[3].veinsmobility acceleration ETV
vector 19 scenario.node[3].veinsmobility co2emission ETV
vector 20 scenario.node[4].veinsmobility posx ETV
vector 21 scenario.node[4].veinsmobility posy ETV
vector 22 scenario.node[4].veinsmobility speed ETV
vector 23 scenario.node[4].veinsmobility acceleration ETV
vector 24 scenario.node[4].veinsmobility co2emission ETV
vector 25 scenario.node[5].veinsmobility posx ETV
vector 26 scenario.node[5].veinsmobility posy ETV
vector 27 scenario.node[5].veinsmobility speed ETV
vector 28 scenario.node[5].veinsmobility acceleration ETV
vector 29 scenario.node[5].veinsmobility co2emission ETV
vector 30 scenario.node[6].veinsmobility posx ETV
vector 31 scenario.node[6].veinsmobility posy ETV
vector 32 scenario.node[6].veinsmobility speed ETV
vector 33 scenario.node[6].veinsmobility acceleration ETV
vector 34 scenario.node[6].veinsmobility co2emission ETV
vector 35 scenario.node[7].veinsmobility posx ETV
vector 36 scenario.node[7].veinsmobility posy ETV
vector 37 scenario.node[7].veinsmobility speed ETV
vector 38 scenario.node[7].veinsmobility acceleration ETV
vector 39 scenario.node[7].veinsmobility co2emission ETV
vector 40 scenario.node[8].veinsmobility posx ETV
vector 41 scenario.node[8].veinsmobility posy ETV
vector 42 scenario.node[8].veinsmobility speed ETV
vector 43 scenario.node[8].veinsmobility acceleration ETV
vector 44 scenario.node[8].veinsmobility co2emission ETV
9	16	8	0.973
9	18	9	7.571291812718
9	20	10	5.5542453148332
9	22	11	1.4446197809318
9	24	12	8.6315642222256
9	26	13	9.2060826741665
9	28	14	0.973
9	30	15	5.2489198220867
9	32	16	7.1687562163273
9	34	17	0.973
9	36	18	6.9480686769379
9	38	19	8.8579526330423
9	40	20	1.393928211888
9	42	21	8.2398834073704
9	44	22	7.6306723667609
9	46	23	4.4593470779989
9	48	24	4.5196711937101
9	50	25	0.973
9	52	26	10.368813933513
9	54	27	6.5199012956322
9	56	28	5.7030773608943
9	58	29	0.973
9	60	30	3.863437302193
9	62	31	11.027256408771
9	64	32	8.1767519295294
9	66	33	0.98654654063178
9	68	34	3.1789142730335
9	70	35	0.85270495148895
9	72	36	12.092594897105
9	74	37	1.606732939453
9	76	38	1.5167159832925
9	78	39	10.081044838065
9	80	40	3.5901547221702
9	82	41	2.5664515626103
9	84	42	5.5122715547223
9	86	43	2.3467555429042
9	88	44	10.7882149438
8	16	8	-0.89912858465686
8	18	9	0.44805449608248
8	20	10	0.14435671095271
8	22	11	-0.4477252420038
8	24	12	0.58708500838839
8	26	13	0.63133426685818
8	28	14	-1.0425417660736
8	30	15	0.1067264751764
8	32	16	0.37020253634546
8	34	17	-0.83901198150124
8	36	18	0.36283537116833
8	38	19	0.6079941970529
8	40	20	-0.46267451299354
8	42	21	0.51538926071953
8	44	22	0.40517952258233
8	46	23	-0.0453104210319
8	48	24	-0.035315734567121
8	50	25	-1.1524176645325
8	52	26	0.82356644805986
8	54	27	0.25436424650252
8	56	28	0.13136080303229
8	58	29	-1.288658154197
8	60	30	-0.081923894234933
8	62	31	0.92324440763332
8	64	32	0.48240846942645
8	66	33	-0.53113030199893
8	68	34	-0.20612035389058
8	70	35	-0.53552201518323
8	72	36	1.0570896458812
8	74	37	-0.43808835558593
8	76	38	-0.44074191909749
8	78	39	0.77513791888487
8	80	40	-0.15504761959892
8	82	41	-0.29476078238804
8	84	42	0.13075266627129
8	86	43	-0.32156901131384
8	88	44	0.86154521314893
7	14	7	28.609053899346
7	16	8	27.709925314689
7	18	9	28.157979810772
7	20	10	28.302336521724
7	22	11	27.854611279721
7	24	12	28.441696288109
7	26	13	29.073030554967
7	28	14	28.030488788894
7	30	15	28.13721526407
7	32	16	28.507417800415
7	34	17	27.668405818914
7	36	18	28.031241190083
7	38	19	28.639235387135
7	40	20	28.176560874142
7	42	21	28.691950134861
7	44	22	29.097129657444
7	46	23	29.051819236412
7	48	24	29.016503501845
7	50	25	27.864085837312
7	52	26	28.687652285372
7	54	27	28.942016531875
7	56	28	29.073377334907
7	58	29	27.78471918071
7	60	30	27.702795286475
7	62	31	28.626039694108
7	64	32	29.108448163535
7	66	33	28.577317861536
7	68	34	28.371197507645
7	70	35	27.835675492462
7	72	36	28.892765138343
7	74	37	28.454676782757
7	76	38	28.01393486366
7	78	39	28.789072782545
7	80	40	28.634025162946
7	82	41	28.339264380558
7	84	42	28.470017046829
7	86	43	28.148448035515
7	88	44	29.009993248664
6	12	6	76.65
6	14	7	76.65
6	16	8	76.65
6	18	9	76.65
6	20	10	76.65
6	22	11	76.65
6	24	12	76.65
6	26	13	76.65
6	28	14	76.65
6	30	15	76.65
6	32	16	76.65
6	34	17	76.65
6	36	18	76.65
6	38	19	76.65
6	40	20	76.65
6	42	21	76.65
6	44	22	76.65
6	46	23	76.65
6	48	24	76.65
6	50	25	76.65
6	52	26	76.65
6	54	27	76.65
6	56	28	76.65
6	58	29	76.65
6	60	30	76.65
6	62	31	76.65
6	64	32	76.65
6	66	33	76.65
6	68	34	76.65
6	70	35	76.65
6	72	36	76.65
6	74	37	76.65
6	76	38	76.65
6	78	39	76.65
6	80	40	76.65
6	82	41	76.65
6	84	42	76.65
6	86	43	76.65
6	88	44	76.65
5	12	6	27.6
5	14	7	27.6
5	16	8	56.209053899346
5	18	9	83.918979214035
5	20	10	112.07695902481
5	22	11	140.37929554653
5	24	12	168.23390682625
5	26	13	196.67560311436
5	28	14	225.74863366933
5	30	15	253.77912245822
5	32	16	281.91633772229
5	34	17	310.42375552271
5	36	18	338.09216134162
5	38	19	366.1234025317
5	40	20	394.76263791884
5	42	21	422.93919879298
5	44	22	451.63114892784
5	46	23	480.72827858529
5	48	24	509.7800978217
5	50	25	538.79660132354
5	52	26	566.66068716086
5	54	27	595.34833944623
5	56	28	624.2903559781
5	58	29	653.36373331301
5	60	30	681.14845249372
5	62	31	708.85124778019
5	64	32	737.4772874743
5	66	33	766.58573563784
5	68	34	795.16305349937
5	70	35	823.53425100702
5	72	36	851.36992649948
5	74	37	880.26269163782
5	76	38	908.71736842058
5	78	39	936.73130328424
5	80	40	965.52037606678
5	82	41	994.15440122973
5	84	42	1022.4936656103
5	86	43	1050.9636826571
5	88	44	1079.1121306926
vector 45 scenario.node[9].veinsmobility posx ETV
vector 46 scenario.node[9].veinsmobility posy ETV
vector 47 scenario.node[9].veinsmobility speed ETV
vector 48 scenario.node[9].veinsmobility acceleration ETV
vector 49 scenario.node[9].veinsmobility co2emission ETV
14	26	13	0.973
14	28	14	4.3729879805779
14	30	15	8.8381248682011
14	32	16	6.1443901092633
14	34	17	0.15586116913647
14	36	18	6.3080158955641
14	38	19	4.6751250531466
14	40	20	7.0759005603274
14	42	21	0.47102006867537
14	44	22	5.7960442460378
14	46	23	3.3909990412772
14	48	24	3.6091145658986
14	50	25	6.1730644351122
14	52	26	2.5518715447115
14	54	27	6.6825782648109
14	56	28	1.3956135536307
14	58	29	11.453308106654
14	60	30	0.973
14	62	31	9.2614485980119
14	64	32	3.8380167674443
14	66	33	1.1088404374297
14	68	34	11.560910168178
14	70	35	0.973
14	72	36	12.430896896048
14	74	37	0.973
14	76	38	7.9747994378556
14	78	39	4.4876678360052
14	80	40	9.6989009355358
14	82	41	0.973
14	84	42	10.769717087539
14	86	43	6.4398003582827
14	88	44	-0.058287173049706
14	90	45	9.561375614728
14	92	46	-0.54007397044843
14	94	47	6.9918692427349
14	96	48	5.8436842852781
14	98	49	1.9765281061577
14	100	50	-0.095317974068321
13	26	13	-1.0121632965747
13	28	14	0.014476087060757
13	30	15	0.6544062285684
13	32	16	0.24133810924832
13	34	17	-0.63323444430716
13	36	18	0.28271973493975
13	38	19	0.036917676916346
13	40	20	0.3756853613304
13	42	21	-0.58749160193838
13	44	22	0.20473181270063
13	46	23	-0.14969052001834
13	48	24	-0.11298538965639
13	50	25	0.26115354057401
13	52	26	-0.27218583819922
13	54	27	0.33413319883402
13	56	28	-0.44422700407449
13	58	29	1.0031779732089
13	60	30	-1.2539594013942
13	62	31	0.7172758692177
13	64	32	-0.087725587072782
13	66	33	-0.48545344825834
13	68	34	1.0253108883044
13	70	35	-0.91773413890041
13	72	36	1.1354617764009
13	74	37	-1.1768446286442
13	76	38	0.52453099109698
13	78	39	0.0050356012070552
13	80	40	0.73234529723413
13	82	41	-1.2987660857616
13	84	42	0.91510820807889
13	86	43	0.26532111468259
13	88	44	-0.67095766996499
13	90	45	0.71707845409401
13	92	46	-0.74252155283466
13	94	47	0.36312700272538
13	96	48	0.18530205683783
13	98	49	-0.37131511070766
13	100	50	-0.66896398121025
12	24	12	28.185867935272
12	26	13	27.173704638697
12	28	14	27.188180725758
12	30	15	27.842586954326
12	32	16	28.083925063575
12	34	17	27.450690619267
12	36	18	27.733410354207
12	38	19	27.770328031123
12	40	20	28.146013392454
12	42	21	27.558521790515
12	44	22	27.763253603216
12	46	23	27.613563083198
12	48	24	27.500577693541
12	50	25	27.761731234115
12	52	26	27.489545395916
12	54	27	27.82367859475
12	56	28	27.379451590676
12	58	29	28.382629563885
12	60	30	27.12867016249
12	62	31	27.845946031708
12	64	32	27.758220444635
12	66	33	27.272766996377
12	68	34	28.298077884681
12	70	35	27.380343745781
12	72	36	28.515805522182
12	74	37	27.338960893538
12	76	38	27.863491884635
12	78	39	27.868527485842
12	80	40	28.600872783076
12	82	41	27.302106697314
12	84	42	28.217214905393
12	86	43	28.482536020076
12	88	44	27.811578350111
12	90	45	28.528656804205
12	92	46	27.78613525137
12	94	47	28.149262254095
12	96	48	28.334564310933
12	98	49	27.963249200226
12	100	50	27.294285219015
11	22	11	76.65
11	24	12	76.65
11	26	13	76.65
11	28	14	76.65
11	30	15	76.65
11	32	16	76.65
11	34	17	76.65
11	36	18	76.65
11	38	19	76.65
11	40	20	76.65
11	42	21	76.65
11	44	22	76.65
11	46	23	76.65
11	48	24	76.65
11	50	25	76.65
11	52	26	76.65
11	54	27	76.65
11	56	28	76.65
11	58	29	76.65
11	60	30	76.65
11	62	31	76.65
11	64	32	76.65
11	66	33	76.65
11	68	34	76.65
11	70	35	76.65
11	72	36	76.65
11	74	37	76.65
11	76	38	76.65
11	78	39	76.65
11	80	40	76.65
11	82	41	76.65
11	84	42	76.65
11	86	43	76.65
11	88	44	76.65
11	90	45	76.65
11	92	46	76.65
11	94	47	76.65
11	96	48	76.65
11	98	49	76.65
11	100	50	76.65
10	22	11	27.6
10	24	12	27.6
10	26	13	55.785867935272
10	28	14	82.959572573969
10	30	15	110.14775329973
10	32	16	137.99034025405
10	34	17	166.07426531763
10	36	18	193.52495593689
10	38	19	221.2583662911
10	40	20	249.02869432223
10	42	21	277.17470771468
10	44	22	304.73322950519
10	46	23	332.49648310841
10	48	24	360.11004619161
10	50	25	387.61062388515
10	52	26	415.37235511927
10	54	27	442.86190051518
10	56	28	470.68557910993
10	58	29	498.06503070061
10	60	30	526.44766026449
10	62	31	553.57633042698
10	64	32	581.42227645869
10	66	33	609.18049690333
10	68	34	636.4532638997
10	70	35	664.75134178438
10	72	36	692.13168553017
10	74	37	720.64749105235
10	76	38	747.98645194588
10	78	39	775.84994383052
10	80	40	803.71847131636
10	82	41	832.31934409944
10	84	42	859.62145079675
10	86	43	887.83866570214
10	88	44	916.32120172222
10	90	45	944.13278007233
10	92	46	972.66143687654
10	94	47	1000.4475721279
10	96	48	1028.596834382
10	98	49	1056.9313986929
10	100	50	1084.8946478932
4	6	3	9.0549579066719
4	8	4	8.4988778463559
4	10	5	0.046631045706452
4	12	6	1.346729538445
4	14	7	6.8698411864162
4	16	8	6.3845112230278
4	18	9	10.609141425341
4	20	10	-0.62763525208726
4	22	11	9.4819023524904
4	24	12	4.4429678264677
4	26	13	-0.10558168561576
4	28	14	11.802268687823
4	30	15	5.4601311759271
4	32	16	0.92545498520847
4	34	17	5.8794977887355
4	36	18	6.1640655057657
4	38	19	3.4203111609862
4	40	20	10.69111669374
4	42	21	0.973
4	44	22	1.657240795733
4	46	23	0.973
4	48	24	0.973
4	50	25	6.8873410875499
4	52	26	8.7153613680355
4	54	27	10.481337742516
4	56	28	13.647619651626
4	58	29	9.7900710599951
4	60	30	11.040397963356
4	62	31	17.670968084201
4	64	32	10.750191121711
4	66	33	0.973
4	68	34	0.973
4	70	35	0.973
4	72	36	0.973
4	74	37	0.973
4	76	38	2.895683770623
4	78	39	4.911766703401
4	80	40	7.0612908527211
4	82	41	8.2447657600449
4	84	42	11.036958788348
4	86	43	14.133908257221
4	88	44	9.8993118530698
4	90	45	17.061728298034
4	92	46	20.237856713134
4	94	47	15.817163598095
4	96	48	25.314086009014
4	98	49	11.340815735048
4	100	50	12.045439798267
4	102	51	8.1959037671618
4	104	52	4.2534703935833
4	106	53	6.6169435648953
4	108	54	3.5432559630354
4	110	55	0.973
3	6	3	0.52293095912319
3	8	4	0.42359790159389
3	10	5	-0.69673392002005
3	12	6	-0.50619142258074
3	14	7	0.25186112383381
3	16	8	0.1763841798529
3	18	9	0.71072384552099
3	20	10	-0.7868874395499
3	22	11	0.57219625858124
3	24	12	-0.10559434723109
3	26	13	-0.71066696522757
3	28	14	0.88155823771376
3	30	15	0.024184075067751
3	32	16	-0.57467688911129
3	34	17	0.10187313426286
3	36	18	0.13466655404773
3	38	19	-0.23182501236442
3	40	20	0.72010953607969
3	42	21	-7.7209597386542
3	44	22	-0.30163625662241
3	46	23	-9.81
3	48	24	-8.0584574503032
3	50	25	2.8317438979866
3	52	26	2.7384849217487
3	54	27	2.6670102429343
3	56	28	2.9172298188787
3	58	29	1.6939015447861
3	60	30	1.753008240019
3	62	31	2.6899212689605
3	64	32	1.282407387362
3	66	33	-9.81
3	68	34	-9.3666675611772
3	70	35	-3.9618368597577
3	72	36	-0.26963264647203
3	74	37	-0.15441529103819
3	76	38	2.6095504561672
3	78	39	2.7295954587171
3	80	40	2.7992557006655
3	82	41	2.5256635320839
3	84	42	2.7868333618389
3	86	43	2.9800169836963
3	88	44	1.6841681865044
3	90	45	2.7937097707763
3	92	46	2.9105152337579
3	94	47	1.9145972941769
3	96	48	2.9781375559978
3	98	49	0.89582174799748
3	100	50	0.92667383747175
3	102	51	0.38304375694133
3	104	52	-0.14038894081023
3	106	53	0.16990252397954
3	108	54	-0.23387099092361
3	110	55	-1.0898026465438
2	4	2	29.997433819196
2	6	3	30.520364778319
2	8	4	30.943962679913
2	10	5	30.247228759893
2	12	6	29.741037337312
2	14	7	29.992898461146
2	16	8	30.169282640999
2	18	9	30.88000648652
2	20	10	30.09311904697
2	22	11	30.665315305551
2	24	12	30.55972095832
2	26	13	29.849053993093
2	28	14	30.730612230806
2	30	15	30.754796305874
2	32	16	30.180119416763
2	34	17	30.281992551026
2	36	18	30.416659105073
2	38	19	30.184834092709
2	40	20	30.904943628789
2	42	21	23.183983890134
2	44	22	22.882347633512
2	46	23	13.072347633512
2	48	24	5.0138901832088
2	50	25	7.8456340811954
2	52	26	10.584119002944
2	54	27	13.251129245879
2	56	28	16.168359064757
2	58	29	17.862260609543
2	60	30	19.615268849562
2	62	31	22.305190118523
2	64	32	23.587597505885
2	66	33	13.777597505885
2	68	34	4.4109299447075
2	70	35	0.4490930849498
2	72	36	0.17946043847777
2	74	37	0.02504514743958
2	76	38	2.6345956036068
2	78	39	5.3641910623239
2	80	40	8.1634467629894
2	82	41	10.689110295073
2	84	42	13.475943656912
2	86	43	16.455960640608
2	88	44	18.140128827113
2	90	45	20.933838597889
2	92	46	23.844353831647
2	94	47	25.758951125824
2	96	48	28.737088681822
2	98	49	29.632910429819
2	100	50	30.559584267291
2	102	51	30.942628024232
2	104	52	30.802239083422
2	106	53	30.972141607402
2	108	54	30.738270616478
2	110	55	29.648467969934
1	2	1	76.65
1	4	2	76.65
1	6	3	76.65
1	8	4	76.65
1	10	5	76.65
1	12	6	76.65
1	14	7	76.65
1	16	8	76.65
1	18	9	76.65
1	20	10	76.65
1	22	11	76.65
1	24	12	76.65
1	26	13	76.65
1	28	14	76.65
1	30	15	76.65
1	32	16	76.65
1	34	17	76.65
1	36	18	76.65
1	38	19	76.65
1	40	20	76.65
1	42	21	76.65
1	44	22	82.397365488408
1	46	23	105.27971312192
1	48	24	118.35206075543
1	50	25	123.36595093864
1	52	26	126.6372449069
1	54	27	126.65
1	56	28	126.65
1	58	29	126.65
1	60	30	126.65
1	62	31	126.65
1	64	32	122.30208808896
1	66	33	98.714490583071
1	68	34	84.936893077186
1	70	35	80.525963132478
1	72	36	80.076870047529
1	74	37	79.897409609051
1	76	38	79.872364461611
1	78	39	77.41371455305
1	80	40	76.65
1	82	41	76.65
1	84	42	76.65
1	86	43	76.65
1	88	44	76.65
1	90	45	76.65
1	92	46	76.65
1	94	47	76.65
1	96	48	76.65
1	98	49	76.65
1	100	50	76.65
1	102	51	76.65
1	104	52	76.65
1	106	53	76.65
1	108	54	76.65
1	110	55	76.65
0	2	1	27.6
0	4	2	27.6
0	6	3	57.597433819196
0	8	4	88.117798597515
0	10	5	119.06176127743
0	12	6	149.30899003732
0	14	7	179.05002737463
0	16	8	209.04292583578
0	18	9	239.21220847678
0	20	10	270.0922149633
0	22	11	300.18533401027
0	24	12	330.85064931582
0	26	13	361.41037027414
0	28	14	391.25942426723
0	30	15	421.99003649804
0	32	16	452.74483280391
0	34	17	482.92495222068
0	36	18	513.2069447717
0	38	19	543.62360387678
0	40	20	573.80843796948
0	42	21	604.71338159827
0	44	22	623.35
0	46	23	623.35
0	48	24	623.35
0	50	25	623.35
0	52	26	629.56203020701
0	54	27	640.14570402278
0	56	28	653.39683326866
0	58	29	669.56519233342
0	60	30	687.42745294296
0	62	31	707.04272179252
0	64	32	726.65
0	66	33	726.65
0	68	34	726.65
0	70	35	726.65
0	72	36	726.65
0	74	37	726.65
0	76	38	726.65
0	78	39	727.43051186818
0	80	40	732.62642220432
0	82	41	740.78986896731
0	84	42	751.47897926238
0	86	43	764.95492291929
0	88	44	781.4108835599
0	90	45	799.55101238702
0	92	46	820.4848509849
0	94	47	844.32920481655
0	96	48	870.08815594238
0	98	49	898.8252446242
0	100	50	928.45815505402
0	102	51	959.01773932131
0	104	52	989.96036734554
0	106	53	1020.762606429
0	108	54	1051.7347480364
0	110	55	1082.4730186528
19	36	18	0.973
19	38	19	8.7656023505817
19	40	20	2.8067614496698
19	42	21	2.4722530214755
19	44	22	6.1995125269225
19	46	23	5.1887010820362
19	48	24	0.57091125970782
19	50	25	4.4369048993526
19	52	26	6.9145395049439
19	54	27	0.38250473711102
19	56	28	5.8641351389334
19	58	29	8.1089315714804
19	60	30	3.0251732716807
19	62	31	5.9013711644349
19	64	32	0.65160827145067
19	66	33	6.7989365759798
19	68	34	1.447709497637
19	70	35	9.7662920073525
19	72	36	2.5682175506951
19	74	37	-0.26314758624878
19	76	38	13.474512201954
19	78	39	0.973
19	80	40	9.6195465769937
19	82	41	0.973
19	84	42	0.973
19	86	43	0.973
19	88	44	0.85252095135238
19	90	45	4.7702702444539
19	92	46	13.165978176838
19	94	47	19.783459469086
19	96	48	12.130349606836
19	98	49	20.87316985541
19	100	50	0.973
19	102	51	10.500390374018
19	104	52	3.7473282446291
19	106	53	0.89461147025344
19	108	54	9.3043846262227
19	110	55	0.973
19	112	56	11.799843469574
19	114	57	0.973
18	36	18	-1.0027814763598
18	38	19	0.6573272900423
18	40	20	-0.23075939028058
18	42	21	-0.27363085106481
18	44	22	0.28272506373469
18	46	23	0.12425474915653
18	48	24	-0.56181455100887
18	50	25	0.031846217229031
18	52	26	0.391742648324
18	54	27	-0.58810459147207
18	56	28	0.24871918000281
18	58	29	0.55960003193468
18	60	30	-0.19821544387378
18	62	31	0.22647401026916
18	64	32	-0.55157871020492
18	66	33	0.37068583758082
18	68	34	-0.42830911232159
18	70	35	0.79419417993631
18	72	36	-0.27146273874678
18	74	37	-0.68884672655258
18	76	38	1.3163176212693
18	78	39	-0.78532940230798
18	80	40	0.75090647803154
18	82	41	-1.9422585656091
18	84	42	-4.4836810532382
18	86	43	-1.9843006476001
18	88	44	-0.39870483371958
18	90	45	0.41917135980404
18	92	46	1.9270988789475
18	94	47	2.7436636297357
18	96	48	1.3219045233664
18	98	49	2.4087053952339
18	100	50	-1.3001260320889
18	102	51	0.90791703911964
18	104	52	-0.097938010236248
18	106	53	-0.51560295175295
18	108	54	0.72207479376812
18	110	55	-1.0626898814226
18	112	56	1.0913526937366
18	114	57	-0.8192458357662
17	34	17	27.968599276575
17	36	18	26.965817800215
17	38	19	27.623145090257
17	40	20	27.392385699977
17	42	21	27.118754848912
17	44	22	27.401479912647
17	46	23	27.525734661803
17	48	24	26.963920110794
17	50	25	26.995766328023
17	52	26	27.387508976347
17	54	27	26.799404384875
17	56	28	27.048123564878
17	58	29	27.607723596813
17	60	30	27.409508152939
17	62	31	27.635982163208
17	64	32	27.084403453003
17	66	33	27.455089290584
17	68	34	27.026780178263
17	70	35	27.820974358199
17	72	36	27.549511619452
17	74	37	26.860664892899
17	76	38	28.176982514169
17	78	39	27.391653111861
17	80	40	28.142559589892
17	82	41	26.200301024283
17	84	42	21.716619971045
17	86	43	19.732319323445
17	88	44	19.333614489725
17	90	45	19.752785849529
17	92	46	21.679884728477
17	94	47	24.423548358213
17	96	48	25.745452881579
17	98	49	28.154158276813
17	100	50	26.854032244724
17	102	51	27.761949283844
17	104	52	27.664011273607
17	106	53	27.148408321854
17	108	54	27.870483115622
17	110	55	26.8077932342
17	112	56	27.899145927936
17	114	57	27.07990009217
16	32	16	76.65
16	34	17	76.65
16	36	18	76.65
16	38	19	76.65
16	40	20	76.65
16	42	21	76.65
16	44	22	76.65
16	46	23	76.65
16	48	24	76.65
16	50	25	76.65
16	52	26	76.65
16	54	27	76.65
16	56	28	76.65
16	58	29	76.65
16	60	30	76.65
16	62	31	76.65
16	64	32	76.65
16	66	33	76.65
16	68	34	76.65
16	70	35	76.65
16	72	36	76.65
16	74	37	76.65
16	76	38	76.65
16	78	39	76.65
16	80	40	76.65
16	82	41	76.65
16	84	42	76.65
16	86	43	76.65
16	88	44	76.65
16	90	45	76.65
16	92	46	76.65
16	94	47	76.65
16	96	48	76.65
16	98	49	76.65
16	100	50	76.65
16	102	51	76.65
16	104	52	76.65
16	106	53	76.65
16	108	54	76.65
16	110	55	76.65
16	112	56	76.65
16	114	57	76.65
15	32	16	27.6
15	34	17	27.6
15	36	18	55.568599276575
15	38	19	82.53441707679
15	40	20	110.15756216705
15	42	21	137.54994786702
15	44	22	164.66870271594
15	46	23	192.07018262858
15	48	24	219.59591729039
15	50	25	246.55983740118
15	52	26	273.5556037292
15	54	27	300.94311270555
15	56	28	327.74251709043
15	58	29	354.79064065531
15	60	30	382.39836425212
15	62	31	409.80787240506
15	64	32	437.44385456827
15	66	33	464.52825802127
15	68	34	491.98334731185
15	70	35	519.01012749012
15	72	36	546.83110184831
15	74	37	574.38061346777
15	76	38	601.24127836067
15	78	39	629.41826087483
15	80	40	656.80991398669
15	82	41	684.95247357659
15	84	42	711.15277460087
15	86	43	732.86939457192
15	88	44	752.60171389536
15	90	45	771.93532838509
15	92	46	791.68811423461
15	94	47	813.36799896309
15	96	48	837.7915473213
15	98	49	863.53700020288
15	100	50	891.6911584797
15	102	51	918.54519072442
15	104	52	946.30714000826
15	106	53	973.97115128187
15	108	54	1001.1195596037
15	110	55	1028.9900427193
15	112	56	1055.7978359535
15	114	57	1083.6969818815
24	46	23	1.7198140054505
24	48	24	6.1081315522163
24	50	25	0.45128873086585
24	52	26	3.9248539072026
24	54	27	5.9903169423355
24	56	28	5.5287536501706
24	58	29	0.973
24	60	30	6.9005996942308
24	62	31	0.63551902889744
24	64	32	6.2605383721301
24	66	33	0.973
24	68	34	7.5420850485266
24	70	35	0.973
24	72	36	11.811932117491
24	74	37	0.973
24	76	38	1.7851376226039
24	78	39	10.392072964978
24	80	40	0.973
24	82	41	5.2123049142352
24	84	42	3.4408699298883
24	86	43	5.6820047546245
24	88	44	5.1921189301963
24	90	45	4.3959947610159
24	92	46	1.768243271352
24	94	47	1.4280448798813
24	96	48	0.973
24	98	49	6.8036728284997
24	100	50	4.0506659834386
24	102	51	4.4843835085003
24	104	52	3.7305562147983
24	106	53	3.9853090271354
24	108	54	5.1730099752693
24	110	55	0.973
24	112	56	11.126696420132
24	114	57	3.1977142476819
24	116	58	0.973
24	118	59	10.822570966068
24	120	60	3.4615509099312
24	122	61	0.973
24	124	62	3.7502388831921
24	126	63	1.6088641962311
24	128	64	6.1944799312213
24	130	65	2.4587424982189
24	132	66	5.588685011989
24	134	67	2.2611586990311
23	46	23	-0.30073112924583
23	48	24	0.45402796100825
23	50	25	-0.52526372484863
23	52	26	0.090403794078156
23	54	27	0.43355912924744
23	56	28	0.3361811946379
23	58	29	-0.91208067757543
23	60	30	0.59132538351696
23	62	31	-0.49308057501912
23	64	32	0.48051058023702
23	66	33	-0.64709407940973
23	68	34	0.70043158822227
23	70	35	-0.71973387699109
23	72	36	1.3806626497535
23	74	37	-1.0407006307505
23	76	38	-0.28552295663394
23	78	39	1.1546452429611
23	80	40	-0.9290560958907
23	82	41	0.30186700634658
23	84	42	-0.0077594413887709
23	86	43	0.36559451557696
23	88	44	0.26842668454628
23	90	45	0.12743186764419
23	92	46	-0.3108863462694
23	94	47	-0.36182881006971
23	96	48	-0.74388196400832
23	98	49	0.58496512274724
23	100	50	0.097852063598111
23	102	51	0.16651489469223
23	104	52	0.034382367040962
23	106	53	0.07558081462048
23	108	54	0.26808343757875
23	110	55	-1.0676740977215
23	112	56	1.2677064790623
23	114	57	-0.073654469568282
23	116	58	-1.3116373823723
23	118	59	1.2296100114472
23	120	60	-0.025043911999092
23	122	61	-0.80223134346306
23	124	62	0.052355016348884
23	126	63	-0.31800043070689
23	128	64	0.47424094146118
23	130	65	-0.17465878848452
23	132	66	0.35881528677419
23	134	67	-0.21337454742752
22	44	22	23.648041684041
22	46	23	23.347310554796
22	48	24	23.801338515804
22	50	25	23.276074790955
22	52	26	23.366478585033
22	54	27	23.800037714281
22	56	28	24.136218908919
22	58	29	23.224138231343
22	60	30	23.81546361486
22	62	31	23.322383039841
22	64	32	23.802893620078
22	66	33	23.155799540668
22	68	34	23.856231128891
22	70	35	23.1364972519
22	72	36	24.517159901653
22	74	37	23.476459270903
22	76	38	23.190936314269
22	78	39	24.34558155723
22	80	40	23.416525461339
22	82	41	23.718392467686
22	84	42	23.710633026297
22	86	43	24.076227541874
22	88	44	24.34465422642
22	90	45	24.472086094064
22	92	46	24.161199747795
22	94	47	23.799370937725
22	96	48	23.055488973717
22	98	49	23.640454096464
22	100	50	23.738306160062
22	102	51	23.904821054755
22	104	52	23.939203421795
22	106	53	24.014784236416
22	108	54	24.282867673995
22	110	55	23.215193576273
22	112	56	24.482900055336
22	114	57	24.409245585767
22	116	58	23.097608203395
22	118	59	24.327218214842
22	120	60	24.302174302843
22	122	61	23.49994295938
22	124	62	23.552297975729
22	126	63	23.234297545022
22	128	64	23.708538486483
22	130	65	23.533879697999
22	132	66	23.892694984773
22	134	67	23.679320437345
21	42	21	76.65
21	44	22	76.65
21	46	23	76.65
21	48	24	76.65
21	50	25	76.65
21	52	26	76.65
21	54	27	76.65
21	56	28	76.65
21	58	29	76.65
21	60	30	76.65
21	62	31	76.65
21	64	32	76.65
21	66	33	76.65
21	68	34	76.65
21	70	35	76.65
21	72	36	76.65
21	74	37	76.65
21	76	38	76.65
21	78	39	76.65
21	80	40	76.65
21	82	41	76.65
21	84	42	76.65
21	86	43	76.65
21	88	44	76.65
21	90	45	76.65
21	92	46	76.65
21	94	47	76.65
21	96	48	76.65
21	98	49	76.65
21	100	50	76.65
21	102	51	76.65
21	104	52	76.65
21	106	53	76.65
21	108	54	76.65
21	110	55	76.65
21	112	56	76.65
21	114	57	76.65
21	116	58	76.65
21	118	59	76.65
21	120	60	76.65
21	122	61	76.65
21	124	62	76.65
21	126	63	76.65
21	128	64	76.65
21	130	65	76.65
21	132	66	76.65
21	134	67	76.65
20	42	21	27.6
20	44	22	27.6
20	46	23	51.248041684041
20	48	24	74.595352238837
20	50	25	98.396690754641
20	52	26	121.6727655456
20	54	27	145.03924413063
20	56	28	168.83928184491
20	58	29	192.97550075383
20	60	30	216.19963898517
20	62	31	240.01510260003
20	64	32	263.33748563987
20	66	33	287.14037925995
20	68	34	310.29617880062
20	70	35	334.15240992951
20	72	36	357.28890718141
20	74	37	381.80606708306
20	76	38	405.28252635397
20	78	39	428.47346266824
20	80	40	452.81904422547
20	82	41	476.2355696868
20	84	42	499.95396215449
20	86	43	523.66459518079
20	88	44	547.74082272266
20	90	45	572.08547694908
20	92	46	596.55756304315
20	94	47	620.71876279094
20	96	48	644.51813372867
20	98	49	667.57362270238
20	100	50	691.21407679885
20	102	51	714.95238295891
20	104	52	738.85720401366
20	106	53	762.79640743546
20	108	54	786.81119167188
20	110	55	811.09405934587
20	112	56	834.30925292214
20	114	57	858.79215297748
20	116	58	883.20139856325
20	118	59	906.29900676664
20	120	60	930.62622498148
20	122	61	954.92839928433
20	124	62	978.42834224371
20	126	63	1001.9806402194
20	128	64	1025.2149377645
20	130	65	1048.9234762509
20	132	66	1072.4573559489
20	134	67	1096.3500509337
29	56	28	4.9858038120998
29	58	29	0.52546022836854
29	60	30	5.9148877470403
29	62	31	3.9208490831598
29	64	32	9.9739360157494
29	66	33	2.5921328459627
29	68	34	6.3291471048379
29	70	35	2.2669775926419
29	72	36	0.973
29	74	37	3.8584107417059
29	76	38	0.973
29	78	39	0.973
29	80	40	10.622798312612
29	82	41	0.973
29	84	42	2.9490651162447
29	86	43	9.5557847369222
29	88	44	4.1835792819931
29	90	45	3.5509308463867
29	92	46	4.9789304676693
29	94	47	0.35040355095288
29	96	48	0.973
29	98	49	2.7033938664692
29	100	50	1.8082968432341
29	102	51	5.7170352537887
29	104	52	6.7061196535155
29	106	53	2.0977399821581
29	108	54	5.8944707637498
29	110	55	4.3495816596559
29	112	56	0.973
29	114	57	18.158832438207
29	116	58	0.973
29	118	59	0.973
29	120	60	11.176328985512
29	122	61	1.1231190440845
29	124	62	1.696925559955
29	126	63	3.8311777265364
29	128	64	0.973
29	130	65	6.785719078839
29	132	66	3.3304873663902
29	134	67	13.411257243018
29	136	68	2.9900845400729
28	56	28	-0.081297066179104
28	58	29	-0.64957346417941
28	60	30	0.065835305023938
28	62	31	-0.19247061456554
28	64	32	0.58180507365614
28	66	33	-0.37649380008224
28	68	34	0.11503520887345
28	70	35	-0.41119691651272
28	72	36	-1.9565387216503
28	74	37	-0.12334546713602
28	76	38	-2.4092236391019
28	78	39	-2.3776580149529
28	80	40	1.125032745838
28	82	41	-1.2783985801424
28	84	42	-0.096575377115432
28	86	43	0.97897986919314
28	88	44	0.076245890988794
28	90	45	-0.028375024829483
28	92	46	0.20126950059151
28	94	47	-0.55845119505767
28	96	48	-0.98463312550988
28	98	49	-0.12619010166936
28	100	50	-0.27875041988815
28	102	51	0.40266031843053
28	104	52	0.54508760145495
28	106	53	-0.24458875344848
28	108	54	0.3968885353486
28	110	55	0.12650664410392
28	112	56	-1.940214429221
28	114	57	2.4189115122067
28	116	58	-0.70342827656682
28	118	59	-0.6719425204887
28	120	60	1.2599028706643
28	122	61	-0.42322106203227
28	124	62	-0.31781095218333
28	126	63	0.050403179261213
28	128	64	-1.6207295126838
28	130	65	0.62236192618511
28	132	66	-0.001527371701382
28	134	67	1.6409536534911
28	136	68	-0.11201242035475
27	54	27	31.862344438425
27	56	28	31.781047372246
27	58	29	31.131473908067
27	60	30	31.197309213091
27	62	31	31.004838598525
27	64	32	31.586643672181
27	66	33	31.210149872099
27	68	34	31.325185080972
27	70	35	30.91398816446
27	72	36	28.957449442809
27	74	37	28.834103975673
27	76	38	26.424880336572
27	78	39	24.047222321619
27	80	40	25.172255067457
27	82	41	23.893856487314
27	84	42	23.797281110199
27	86	43	24.776260979392
27	88	44	24.852506870381
27	90	45	24.824131845551
27	92	46	25.025401346143
27	94	47	24.466950151085
27	96	48	23.482317025575
27	98	49	23.356126923906
27	100	50	23.077376504018
27	102	51	23.480036822448
27	104	52	24.025124423903
27	106	53	23.780535670455
27	108	54	24.177424205803
27	110	55	24.303930849907
27	112	56	22.363716420686
27	114	57	24.782627932893
27	116	58	24.079199656326
27	118	59	23.407257135837
27	120	60	24.667160006502
27	122	61	24.243938944469
27	124	62	23.926127992286
27	126	63	23.976531171547
27	128	64	22.355801658863
27	130	65	22.978163585049
27	132	66	22.976636213347
27	134	67	24.617589866838
27	136	68	24.505577446484
26	52	26	76.65
26	54	27	76.65
26	56	28	76.65
26	58	29	76.65
26	60	30	76.65
26	62	31	76.65
26	64	32	76.65
26	66	33	76.65
26	68	34	76.65
26	70	35	76.65
26	72	36	76.65
26	74	37	76.65
26	76	38	76.65
26	78	39	76.65
26	80	40	76.65
26	82	41	76.65
26	84	42	76.65
26	86	43	76.65
26	88	44	76.65
26	90	45	76.65
26	92	46	76.65
26	94	47	76.65
26	96	48	76.65
26	98	49	76.65
26	100	50	76.65
26	102	51	76.65
26	104	52	76.65
26	106	53	76.65
26	108	54	76.65
26	110	55	76.65
26	112	56	76.65
26	114	57	76.65
26	116	58	76.65
26	118	59	76.65
26	120	60	76.65
26	122	61	76.65
26	124	62	76.65
26	126	63	76.65
26	128	64	76.65
26	130	65	76.65
26	132	66	76.65
26	134	67	76.65
26	136	68	76.65
25	52	26	27.6
25	54	27	27.6
25	56	28	59.462344438425
25	58	29	91.243391810671
25	60	30	122.37486571874
25	62	31	153.57217493183
25	64	32	184.57701353035
25	66	33	216.16365720253
25	68	34	247.37380707463
25	70	35	278.69899215561
25	72	36	309.61298032007
25	74	37	338.57042976287
25	76	38	367.40453373855
25	78	39	393.82941407512
25	80	40	417.87663639674
25	82	41	443.04889146419
25	84	42	466.94274795151
25	86	43	490.74002906171
25	88	44	515.5162900411
25	90	45	540.36879691148
25	92	46	565.19292875703
25	94	47	590.21833010317
25	96	48	614.68528025426
25	98	49	638.16759727983
25	100	50	661.52372420374
25	102	51	684.60110070776
25	104	52	708.08113753021
25	106	53	732.10626195411
25	108	54	755.88679762456
25	110	55	780.06422183037
25	112	56	804.36815268027
25	114	57	826.73186910096
25	116	58	851.51449703385
25	118	59	875.59369669018
25	120	60	899.00095382602
25	122	61	923.66811383252
25	124	62	947.91205277699
25	126	63	971.83818076927
25	128	64	995.81471194082
25	130	65	1018.1705135997
25	132	66	1041.1486771847
25	134	67	1064.1253133981
25	136	68	1088.7429032649
34	66	33	4.869130155239
34	68	34	6.6523318641192
34	70	35	5.2502826957936
34	72	36	3.8483500031438
34	74	37	0.973
34	76	38	9.8094229342761
34	78	39	3.6237909187232
34	80	40	3.5637478689785
34	82	41	6.5046071594608
34	84	42	0.973
34	86	43	1.4218253412069
34	88	44	10.705045593214
34	90	45	0.973
34	92	46	7.0471629311923
34	94	47	5.713715884532
34	96	48	6.362503773908
34	98	49	4.0263033472061
34	100	50	0.53017418395225
34	102	51	3.8946058523337
34	104	52	1.5906469061735
34	106	53	10.342099991995
34	108	54	2.9111613001241
34	110	55	1.0098376468133
34	112	56	3.6407985206403
34	114	57	2.5541013104546
34	116	58	1.9314012446045
34	118	59	7.4791612801221
34	120	60	1.0982709613294
34	122	61	10.629036196662
34	124	62	0.973
34	126	63	8.9693294618797
34	128	64	1.4878940809426
34	130	65	4.4795450051944
34	132	66	0.32947576731682
34	134	67	10.857326760957
34	136	68	-0.18797858917135
34	138	69	4.9727035813729
34	140	70	7.6810732011313
34	142	71	0.973
34	144	72	6.6834357289365
34	146	73	6.846998238851
33	66	33	0.16412850120105
33	68	34	0.43124269670807
33	70	35	0.19756324728951
33	72	36	-0.024533608811907
33	74	37	-1.1266257794341
33	76	38	0.93837723357137
33	78	39	-0.051792116020806
33	80	40	-0.059358479571529
33	82	41	0.39341069350485
33	84	42	-0.85389557224698
33	86	43	-0.38619176892098
33	88	44	1.0729086025385
33	90	45	-1.0367776772473
33	92	46	0.51840081706177
33	94	47	0.28716616833117
33	96	48	0.37222588830628
33	98	49	0.0011910845059901
33	100	50	-0.54512605711352
33	102	51	0.00048761896323413
33	104	52	-0.36491866456345
33	106	53	0.99742116685957
33	108	54	-0.17324090225156
33	110	55	-0.46719461283647
33	112	56	-0.038999227574095
33	114	57	-0.20953008171637
33	116	58	-0.30403478513472
33	118	59	0.580601796275
33	120	60	-0.44477493746672
33	122	61	1.0438645082759
33	124	62	-1.3937335561495
33	126	63	0.82029914064333
33	128	64	-0.3824393969262
33	130	65	0.10487160540652
33	132	66	-0.56634596502408
33	134	67	1.1048779911362
33	136	68	-0.65768971759826
33	138	69	0.18276039103512
33	140	70	0.5889885246288
33	142	71	-1.1650623721071
33	144	72	0.46801723935641
33	146	73	0.46856069541536
32	64	32	25.293247986372
32	66	33	25.457376487573
32	68	34	25.888619184281
32	70	35	26.08618243157
32	72	36	26.061648822758
32	74	37	24.935023043324
32	76	38	25.873400276896
32	78	39	25.821608160875
32	80	40	25.762249681303
32	82	41	26.155660374808
32	84	42	25.301764802561
32	86	43	24.91557303364
32	88	44	25.988481636179
32	90	45	24.951703958932
32	92	46	25.470104775993
32	94	47	25.757270944324
32	96	48	26.129496832631
32	98	49	26.130687917137
32	100	50	25.585561860023
32	102	51	25.586049478986
32	104	52	25.221130814423
32	106	53	26.218551981283
32	108	54	26.045311079031
32	110	55	25.578116466195
32	112	56	25.53911723862
32	114	57	25.329587156904
32	116	58	25.025552371769
32	118	59	25.606154168044
32	120	60	25.161379230578
32	122	61	26.205243738854
32	124	62	24.811510182704
32	126	63	25.631809323347
32	128	64	25.249369926421
32	130	65	25.354241531828
32	132	66	24.787895566804
32	134	67	25.89277355794
32	136	68	25.235083840341
32	138	69	25.417844231377
32	140	70	26.006832756005
32	142	71	24.841770383898
32	144	72	25.309787623255
32	146	73	25.77834831867
31	62	31	76.65
31	64	32	76.65
31	66	33	76.65
31	68	34	76.65
31	70	35	76.65
31	72	36	76.65
31	74	37	76.65
31	76	38	76.65
31	78	39	76.65
31	80	40	76.65
31	82	41	76.65
31	84	42	76.65
31	86	43	76.65
31	88	44	76.65
31	90	45	76.65
31	92	46	76.65
31	94	47	76.65
31	96	48	76.65
31	98	49	76.65
31	100	50	76.65
31	102	51	76.65
31	104	52	76.65
31	106	53	76.65
31	108	54	76.65
31	110	55	76.65
31	112	56	76.65
31	114	57	76.65
31	116	58	76.65
31	118	59	76.65
31	120	60	76.65
31	122	61	76.65
31	124	62	76.65
31	126	63	76.65
31	128	64	76.65
31	130	65	76.65
31	132	66	76.65
31	134	67	76.65
31	136	68	76.65
31	138	69	76.65
31	140	70	76.65
31	142	71	76.65
31	144	72	76.65
31	146	73	76.65
30	62	31	27.6
30	64	32	27.6
30	66	33	52.893247986372
30	68	34	78.350624473945
30	70	35	104.23924365823
30	72	36	130.3254260898
30	74	37	156.38707491255
30	76	38	181.32209795588
30	78	39	207.19549823277
30	80	40	233.01710639365
30	82	41	258.77935607495
30	84	42	284.93501644976
30	86	43	310.23678125232
30	88	44	335.15235428596
30	90	45	361.14083592214
30	92	46	386.09253988107
30	94	47	411.56264465707
30	96	48	437.31991560139
30	98	49	463.44941243402
30	100	50	489.58010035116
30	102	51	515.16566221118
30	104	52	540.75171169017
30	106	53	565.97284250459
30	108	54	592.19139448587
30	110	55	618.2367055649
30	112	56	643.8148220311
30	114	57	669.35393926972
30	116	58	694.68352642662
30	118	59	719.70907879839
30	120	60	745.31523296644
30	122	61	770.47661219701
30	124	62	796.68185593587
30	126	63	821.49336611857
30	128	64	847.12517544192
30	130	65	872.37454536834
30	132	66	897.72878690017
30	134	67	922.51668246697
30	136	68	948.40945602491
30	138	69	973.64453986525
30	140	70	999.06238409663
30	142	71	1025.0692168526
30	144	72	1049.9109872365
30	146	73	1075.2207748598
39	76	38	1.3896159070603
39	78	39	7.3173596862876
39	80	40	2.119478329721
39	82	41	1.715606971633
39	84	42	5.1177943240705
39	86	43	3.3095543103842
39	88	44	0.973
39	90	45	1.9099105514865
39	92	46	4.0810544647437
39	94	47	0.973
39	96	48	5.8395130384695
39	98	49	3.6470516809663
39	100	50	0.98433877433339
39	102	51	5.7465497141349
39	104	52	0.973
39	106	53	2.6481328422678
39	108	54	7.3100961465955
39	110	55	2.6228497157923
39	112	56	0.973
39	114	57	3.8416095089507
39	116	58	1.913600620008
39	118	59	5.5722672157035
39	120	60	0.973
39	122	61	5.5602949021092
39	124	62	3.7680639038051
39	126	63	1.4204905375033
39	128	64	5.7372836740934
39	130	65	0.973
39	132	66	4.4549789340499
39	134	67	0.73639665944056
39	136	68	2.9741970852205
39	138	69	4.4992047556782
39	140	70	2.425265228708
39	142	71	1.1179583150442
39	144	72	3.6792357219958
39	146	73	2.8254394536574
39	148	74	7.2886418617468
39	150	75	2.9796062108739
39	152	76	0.973
39	154	77	0.973
39	156	78	6.3282627373852
39	158	79	0.973
39	160	80	5.7806930340904
39	162	81	1.0839730704517
39	164	82	8.2166947041572
39	166	83	0.973
39	168	84	3.1007896441972
39	170	85	5.3202168074878
39	172	86	1.5316477205275
39	174	87	1.9984024036307
39	176	88	1.5142652860497
39	178	89	8.4974116629528
38	76	38	-0.3013278124854
38	78	39	0.84511111630127
38	80	40	-0.16961397102568
38	82	41	-0.24411979608703
38	84	42	0.41387042112183
38	86	43	0.05726610228885
38	88	44	-0.57725403900258
38	90	45	-0.19808275694959
38	92	46	0.23209843668155
38	94	47	-0.66283623024356
38	96	48	0.58948977361433
38	98	49	0.14222746307496
38	100	50	-0.38471141410992
38	102	51	0.55202437809203
38	104	52	-1.141012736829
38	106	53	-0.026445796480402
38	108	54	0.88366261927877
38	110	55	-0.057298524887301
38	112	56	-0.70767187722959
38	114	57	0.20991986640729
38	116	58	-0.18420785316266
38	118	59	0.54569224349689
38	120	60	-0.60216186591424
38	122	61	0.54659429937601
38	124	62	0.1744014864089
38	126	63	-0.2939576280769
38	128	64	0.55598515144084
38	130	65	-0.59665142919403
38	132	66	0.31405833817553
38	134	67	-0.43219543341547
38	136	68	0.028696292429231
38	138	69	0.32676853844896
38	140	70	-0.091233288520016
38	142	71	-0.35208276822232
38	144	72	0.17170958861243
38	146	73	-0.0036615858552977
38	148	74	0.84918495558668
38	150	75	-0.00087275099940598
38	152	76	-0.62868270417675
38	154	77	-0.58364453015383
38	156	78	0.69404239032883
38	158	79	-0.64651293901261
38	160	80	0.58696921169758
38	162	81	-0.36030974867754
38	164	82	1.0251602829667
38	166	83	-0.77450496051461
38	168	84	0.045591368805617
38	170	85	0.47048014146276
38	172	86	-0.27756163361482
38	174	87	-0.17908232461195
38	176	88	-0.27219601802062
38	178	89	1.0730512639275
37	74	37	20.620688492672
37	76	38	20.319360680186
37	78	39	21.164471796487
37	80	40	20.994857825462
37	82	41	20.750738029375
37	84	42	21.164608450497
37	86	43	21.221874552785
37	88	44	20.644620513783
37	90	45	20.446537756833
37	92	46	20.678636193515
37	94	47	20.015799963271
37	96	48	20.605289736886
37	98	49	20.747517199961
37	100	50	20.362805785851
37	102	51	20.914830163943
37	104	52	19.773817427114
37	106	53	19.747371630633
37	108	54	20.631034249912
37	110	55	20.573735725025
37	112	56	19.866063847795
37	114	57	20.075983714202
37	116	58	19.89177586104
37	118	59	20.437468104537
37	120	60	19.835306238622
37	122	61	20.381900537998
37	124	62	20.556302024407
37	126	63	20.26234439633
37	128	64	20.818329547771
37	130	65	20.221678118577
37	132	66	20.535736456753
37	134	67	20.103541023337
37	136	68	20.132237315767
37	138	69	20.459005854215
37	140	70	20.367772565695
37	142	71	20.015689797473
37	144	72	20.187399386086
37	146	73	20.18373780023
37	148	74	21.032922755817
37	150	75	21.032050004818
37	152	76	20.403367300641
37	154	77	19.819722770487
37	156	78	20.513765160816
37	158	79	19.867252221803
37	160	80	20.454221433501
37	162	81	20.093911684823
37	164	82	21.11907196779
37	166	83	20.344567007275
37	168	84	20.390158376081
37	170	85	20.860638517544
37	172	86	20.583076883929
37	174	87	20.403994559317
37	176	88	20.131798541296
37	178	89	21.204849805224
36	72	36	76.65
36	74	37	76.65
36	76	38	76.65
36	78	39	76.65
36	80	40	76.65
36	82	41	76.65
36	84	42	76.65
36	86	43	76.65
36	88	44	76.65
36	90	45	76.65
36	92	46	76.65
36	94	47	76.65
36	96	48	76.65
36	98	49	76.65
36	100	50	76.65
36	102	51	76.65
36	104	52	76.65
36	106	53	76.65
36	108	54	76.65
36	110	55	76.65
36	112	56	76.65
36	114	57	76.65
36	116	58	76.65
36	118	59	76.65
36	120	60	76.65
36	122	61	76.65
36	124	62	76.65
36	126	63	76.65
36	128	64	76.65
36	130	65	76.65
36	132	66	76.65
36	134	67	76.65
36	136	68	76.65
36	138	69	76.65
36	140	70	76.65
36	142	71	76.65
36	144	72	76.65
36	146	73	76.65
36	148	74	76.65
36	150	75	76.65
36	152	76	76.65
36	154	77	76.65
36	156	78	76.65
36	158	79	76.65
36	160	80	76.65
36	162	81	76.65
36	164	82	76.65
36	166	83	76.65
36	168	84	76.65
36	170	85	76.65
36	172	86	76.65
36	174	87	76.65
36	176	88	76.65
36	178	89	76.65
35	72	36	27.6
35	74	37	27.6
35	76	38	48.220688492672
35	78	39	68.540049172858
35	80	40	89.704520969345
35	82	41	110.69937879481
35	84	42	131.45011682418
35	86	43	152.61472527468
35	88	44	173.83659982746
35	90	45	194.48122034125
35	92	46	214.92775809808
35	94	47	235.60639429159
35	96	48	255.62219425487
35	98	49	276.22748399175
35	100	50	296.97500119171
35	102	51	317.33780697756
35	104	52	338.25263714151
35	106	53	358.02645456862
35	108	54	377.77382619925
35	110	55	398.40486044916
35	112	56	418.97859617419
35	114	57	438.84466002198
35	116	58	458.92064373619
35	118	59	478.81241959723
35	120	60	499.24988770176
35	122	61	519.08519394039
35	124	62	539.46709447838
35	126	63	560.02339650279
35	128	64	580.28574089912
35	130	65	601.10407044689
35	132	66	621.32574856547
35	134	67	641.86148502222
35	136	68	661.96502604556
35	138	69	682.09726336133
35	140	70	702.55626921554
35	142	71	722.92404178124
35	144	72	742.93973157871
35	146	73	763.1271309648
35	148	74	783.31086876503
35	150	75	804.34379152084
35	152	76	825.37584152566
35	154	77	845.7792088263
35	156	78	865.59893159679
35	158	79	886.1126967576
35	160	80	905.97994897941
35	162	81	926.43417041291
35	164	82	946.52808209773
35	166	83	967.64715406552
35	168	84	987.9917210728
35	170	85	1008.3818794489
35	172	86	1029.2425179664
35	174	87	1049.8255948504
35	176	88	1070.2295894097
35	178	89	1090.361387951
44	86	43	3.6762054318944
44	88	44	6.0341875913163
44	90	45	1.8234321226177
44	92	46	0.973
44	94	47	9.0662131405596
44	96	48	9.9897132595507
44	98	49	0.973
44	100	50	0.973
44	102	51	0.973
44	104	52	0.973
44	106	53	0.973
44	108	54	1.8733612313346
44	110	55	2.7170056969272
44	112	56	3.9786444335727
44	114	57	0.973
44	116	58	0.973
44	118	59	1.2531938291554
44	120	60	9.6158470675348
44	122	61	0.973
44	124	62	13.172659558434
44	126	63	0.75807158035637
44	128	64	0.973
44	130	65	4.6006179080479
44	132	66	0.973
44	134	67	6.6994242394563
44	136	68	4.0075999508147
44	138	69	3.5536697902296
44	140	70	4.446726979595
44	142	71	0.973
44	144	72	0.973
44	146	73	7.2640769802636
44	148	74	0.973
44	150	75	9.813339580152
44	152	76	3.8380532437195
44	154	77	0.973
44	156	78	0.973
44	158	79	13.830303797092
44	160	80	0.973
44	162	81	0.973
44	164	82	3.9544825583988
44	166	83	8.1836802929567
44	168	84	3.6769141427394
44	170	85	0.50508557264076
44	172	86	2.2411963043317
44	174	87	3.9108598708208
44	176	88	1.0755384501029
44	178	89	4.0175811091312
44	180	90	7.8793776778671
43	86	43	-0.14997472520918
43	88	44	0.1807910297066
43	90	45	-0.41060413909145
43	92	46	-0.81702124758158
43	94	47	0.65003760822583
43	96	48	0.73582360998262
43	98	49	-1.4578869017995
43	100	50	-2.3562910087084
43	102	51	-1.5973162313087
43	104	52	-1.2134978152409
43	106	53	-1.4662669408876
43	108	54	-0.21553709122325
43	110	55	-0.046414514674314
43	112	56	0.19639867647615
43	114	57	-0.76005092194261
43	116	58	-0.61634765697925
43	118	59	-0.31279818600232
43	120	60	1.3424498491799
43	122	61	-1.3055729564515
43	124	62	1.9700285909152
43	126	63	-0.4375753648089
43	128	64	-0.61873792055831
43	130	65	0.33886077490278
43	132	66	-1.1643030387187
43	134	67	0.78783484665828
43	136	68	0.22621914958528
43	138	69	0.12910582857791
43	140	70	0.29476359746032
43	142	71	-1.0919384033352
43	144	72	-0.45094906807583
43	146	73	0.90275208201145
43	148	74	-0.51632423646359
43	150	75	1.3419430411121
43	152	76	0.15956218357061
43	154	77	-0.93220230783893
43	156	78	-0.7795686670461
43	158	79	2.0646029349185
43	160	80	-1.2270923116476
43	162	81	-0.72045198283929
43	164	82	0.24142979894406
43	166	83	1.034433359551
43	168	84	0.13543277038464
43	170	85	-0.48446857636504
43	172	86	-0.13089634162646
43	174	87	0.19928948364661
43	176	88	-0.36490497366388
43	178	89	0.2268477791945
43	180	90	0.9335152390119
42	84	42	28.99579296699
42	86	43	28.845818241781
42	88	44	29.026609271487
42	90	45	28.616005132396
42	92	46	27.798983884814
42	94	47	28.44902149304
42	96	48	29.184845103023
42	98	49	27.726958201223
42	100	50	25.370667192515
42	102	51	23.773350961206
42	104	52	22.559853145965
42	106	53	21.093586205077
42	108	54	20.878049113854
42	110	55	20.83163459918
42	112	56	21.028033275656
42	114	57	20.267982353713
42	116	58	19.651634696734
42	118	59	19.338836510732
42	120	60	20.681286359912
42	122	61	19.37571340346
42	124	62	21.345741994375
42	126	63	20.908166629567
42	128	64	20.289428709008
42	130	65	20.628289483911
42	132	66	19.463986445192
42	134	67	20.251821291851
42	136	68	20.478040441436
42	138	69	20.607146270014
42	140	70	20.901909867474
42	142	71	19.809971464139
42	144	72	19.359022396063
42	146	73	20.261774478075
42	148	74	19.745450241611
42	150	75	21.087393282723
42	152	76	21.246955466294
42	154	77	20.314753158455
42	156	78	19.535184491409
42	158	79	21.599787426327
42	160	80	20.372695114679
42	162	81	19.65224313184
42	164	82	19.893672930784
42	166	83	20.928106290335
42	168	84	21.06353906072
42	170	85	20.579070484355
42	172	86	20.448174142728
42	174	87	20.647463626375
42	176	88	20.282558652711
42	178	89	20.509406431906
42	180	90	21.442921670918
41	82	41	76.65
41	84	42	76.65
41	86	43	76.65
41	88	44	76.65
41	90	45	76.65
41	92	46	76.65
41	94	47	76.65
41	96	48	76.65
41	98	49	76.65
41	100	50	76.65
41	102	51	76.65
41	104	52	76.65
41	106	53	76.65
41	108	54	76.65
41	110	55	76.65
41	112	56	76.65
41	114	57	76.65
41	116	58	76.65
41	118	59	76.65
41	120	60	76.65
41	122	61	76.65
41	124	62	76.65
41	126	63	76.65
41	128	64	76.65
41	130	65	76.65
41	132	66	76.65
41	134	67	76.65
41	136	68	76.65
41	138	69	76.65
41	140	70	76.65
41	142	71	76.65
41	144	72	76.65
41	146	73	76.65
41	148	74	76.65
41	150	75	76.65
41	152	76	76.65
41	154	77	76.65
41	156	78	76.65
41	158	79	76.65
41	160	80	76.65
41	162	81	76.65
41	164	82	76.65
41	166	83	76.65
41	168	84	76.65
41	170	85	76.65
41	172	86	76.65
41	174	87	76.65
41	176	88	76.65
41	178	89	76.65
41	180	90	76.65
40	82	41	27.6
40	84	42	27.6
40	86	43	56.59579296699
40	88	44	85.441611208771
40	90	45	114.46822048026
40	92	46	143.08422561265
40	94	47	170.88320949747
40	96	48	199.33223099051
40	98	49	228.51707609353
40	100	50	256.24403429475
40	102	51	281.61470148727
40	104	52	305.38805244847
40	106	53	327.94790559444
40	108	54	349.04149179952
40	110	55	369.91954091337
40	112	56	390.75117551255
40	114	57	411.77920878821
40	116	58	432.04719114192
40	118	59	451.69882583866
40	120	60	471.03766234939
40	122	61	491.7189487093
40	124	62	511.09466211276
40	126	63	532.44040410713
40	128	64	553.3485707367
40	130	65	573.63799944571
40	132	66	594.26628892962
40	134	67	613.73027537481
40	136	68	633.98209666666
40	138	69	654.4601371081
40	140	70	675.06728337811
40	142	71	695.96919324559
40	144	72	715.77916470973
40	146	73	735.13818710579
40	148	74	755.39996158386
40	150	75	775.14541182548
40	152	76	796.2328051082
40	154	77	817.47976057449
40	156	78	837.79451373295
40	158	79	857.32969822436
40	160	80	878.92948565068
40	162	81	899.30218076536
40	164	82	918.9544238972
40	166	83	938.84809682799
40	168	84	959.77620311832
40	170	85	980.83974217904
40	172	86	1001.4188126634
40	174	87	1021.8669868061
40	176	88	1042.5144504325
40	178	89	1062.7970090852
40	180	90	1083.3064155171
49	96	48	15.328823635641
49	98	49	1.4985026704325
49	100	50	1.0645315537863
49	102	51	5.2882217432122
49	104	52	17.015666492788
49	106	53	5.6188064418958
49	108	54	3.8939495910171
49	110	55	0.973
49	112	56	0.973
49	114	57	0.973
49	116	58	0.973
49	118	59	0.973
49	120	60	0.973
49	122	61	8.4672707671567
49	124	62	0.973
49	126	63	12.967223867227
49	128	64	3.4023968991083
49	130	65	0.973
49	132	66	8.9469856921284
49	134	67	0.973
49	136	68	3.4273770992783
49	138	69	6.0723161057271
49	140	70	5.5786730692186
49	142	71	1.6262521246013
49	144	72	0.973
49	146	73	3.626784652505
49	148	74	8.3665972213668
49	150	75	0.973
49	152	76	14.078434584875
49	154	77	0.55232731951136
49	156	78	3.271292359677
49	158	79	0.973
49	160	80	9.6391248273244
49	162	81	0.973
49	164	82	0.973
49	166	83	3.1535536557814
49	168	84	10.85718257841
49	170	85	7.2556412325125
49	172	86	0.973
49	174	87	5.1224048117916
49	176	88	2.5279553885996
49	178	89	3.6166704731704
49	180	90	2.3913081261352
49	182	91	6.8167103015746
49	184	92	12.930271504904
48	96	48	1.0061981094768
48	98	49	-0.61024337913841
48	100	50	-0.64558624173515
48	102	51	-0.12315748434048
48	104	52	1.2183804893866
48	106	53	-0.12851056724321
48	108	54	-0.32226631301455
48	110	55	-2.5828628694336
48	112	56	-1.825690044358
48	114	57	-2.3564902397534
48	116	58	-3.6905710316393
48	118	59	-1.6254638665442
48	120	60	-1.0630185418637
48	122	61	0.97432279084932
48	124	62	-3.0840347572528
48	126	63	1.9467975029256
48	128	64	0.073055871569856
48	130	65	-0.8063737321582
48	132	66	1.126068758472
48	134	67	-2.240122892855
48	136	68	0.14672959813778
48	138	69	0.66435620676459
48	140	70	0.53094745201501
48	142	71	-0.25574076850139
48	144	72	-0.68608843181551
48	146	73	0.17130907693056
48	148	74	1.0645530377945
48	150	75	-1.9205265866075
48	152	76	2.160302200847
48	154	77	-0.47686907942175
48	156	78	0.06413162319765
48	158	79	-0.62741758440466
48	160	80	1.2713501427328
48	162	81	-1.0844234053358
48	164	82	-1.1494648082002
48	166	83	0.09516447772851
48	168	84	1.5674963853997
48	170	85	0.79480760360446
48	172	86	-1.2997513904557
48	174	87	0.43288063786647
48	176	88	-0.081566594353546
48	178	89	0.13094281600096
48	180	90	-0.10950179947226
48	182	91	0.72449487283415
48	184	92	1.7075609131716
47	94	47	34.124283238058
47	96	48	35.130481347535
47	98	49	34.520237968396
47	100	50	33.874651726661
47	102	51	33.751494242321
47	104	52	34.969874731707
47	106	53	34.841364164464
47	108	54	34.51909785145
47	110	55	31.936234982016
47	112	56	30.110544937658
47	114	57	27.754054697905
47	116	58	24.063483666265
47	118	59	22.438019799721
47	120	60	21.375001257857
47	122	61	22.349324048707
47	124	62	19.265289291454
47	126	63	21.21208679438
47	128	64	21.285142665949
47	130	65	20.478768933791
47	132	66	21.604837692263
47	134	67	19.364714799408
47	136	68	19.511444397546
47	138	69	20.175800604311
47	140	70	20.706748056326
47	142	71	20.451007287824
47	144	72	19.764918856009
47	146	73	19.936227932939
47	148	74	21.000780970734
47	150	75	19.080254384126
47	152	76	21.240556584973
47	154	77	20.763687505552
47	156	78	20.827819128749
47	158	79	20.200401544345
47	160	80	21.471751687077
47	162	81	20.387328281742
47	164	82	19.237863473541
47	166	83	19.33302795127
47	168	84	20.90052433667
47	170	85	21.695331940274
47	172	86	20.395580549818
47	174	87	20.828461187685
47	176	88	20.746894593331
47	178	89	20.877837409332
47	180	90	20.76833560986
47	182	91	21.492830482694
47	184	92	23.200391395866
46	92	46	76.65
46	94	47	76.65
46	96	48	76.65
46	98	49	76.65
46	100	50	76.65
46	102	51	76.65
46	104	52	76.65
46	106	53	76.65
46	108	54	76.65
46	110	55	76.65
46	112	56	76.65
46	114	57	76.65
46	116	58	76.65
46	118	59	76.65
46	120	60	76.65
46	122	61	76.65
46	124	62	76.65
46	126	63	76.65
46	128	64	76.65
46	130	65	76.65
46	132	66	76.65
46	134	67	76.65
46	136	68	76.65
46	138	69	76.65
46	140	70	76.65
46	142	71	76.65
46	144	72	76.65
46	146	73	76.65
46	148	74	76.65
46	150	75	76.65
46	152	76	76.65
46	154	77	76.65
46	156	78	76.65
46	158	79	76.65
46	160	80	76.65
46	162	81	76.65
46	164	82	76.65
46	166	83	76.65
46	168	84	76.65
46	170	85	76.65
46	172	86	76.65
46	174	87	76.65
46	176	88	76.65
46	178	89	76.65
46	180	90	76.65
46	182	91	76.65
46	184	92	76.65
45	92	46	27.6
45	94	47	27.6
45	96	48	61.724283238058
45	98	49	96.854764585593
45	100	50	131.37500255399
45	102	51	165.24965428065
45	104	52	199.00114852297
45	106	53	233.97102325468
45	108	54	268.81238741914
45	110	55	303.33148527059
45	112	56	335.26772025261
45	114	57	365.37826519027
45	116	58	393.13231988817
45	118	59	417.19580355444
45	120	60	439.63382335416
45	122	61	461.00882461202
45	124	62	483.35814866072
45	126	63	502.62343795218
45	128	64	523.83552474656
45	130	65	545.1206674125
45	132	66	565.5994363463
45	134	67	587.20427403856
45	136	68	606.56898883797
45	138	69	626.08043323551
45	140	70	646.25623383982
45	142	71	666.96298189615
45	144	72	687.41398918397
45	146	73	707.17890803998
45	148	74	727.11513597292
45	150	75	748.11591694366
45	152	76	767.19617132778
45	154	77	788.43672791276
45	156	78	809.20041541831
45	158	79	830.02823454706
45	160	80	850.2286360914
45	162	81	871.70038777848
45	164	82	892.08771606022
45	166	83	911.32557953376
45	168	84	930.65860748503
45	170	85	951.5591318217
45	172	86	973.25446376197
45	174	87	993.65004431179
45	176	88	1014.4785054995
45	178	89	1035.2254000928
45	180	90	1056.1032375021
45	182	91	1076.871573112
45	184	92	1098.3644035947

