version 2
run General-58-20200211-12:45:03-39082
attr configname General
attr datetime 20200211-12:45:03
attr experiment General
attr inifile omnetpp.ini
attr iterationvars $0=58
attr iterationvarsf 58-
attr measurement $0=58
attr network scenario
attr processid 39082
attr repetition 0
attr replication #0
attr resultdir veins-runall-output
attr runnumber 58
attr seedset 58
param *.playgroundSizeX 10672m
param *.playgroundSizeY 7105m
param *.playgroundSizeZ 10000m
param *.annotations.draw false
param *.world.useTorus false
param *.world.use2D false
param *.manager.updateInterval 1s
param *.manager.host "\"localhost\""
param *.manager.port 9999
param *.manager.moduleType "\"org.car2x.veins.nodes.Car\""
param *.manager.moduleName "\"node\""
param *.manager.moduleDisplayString "\"\""
param *.manager.autoShutdown true
param *.manager.margin 25
param *.manager.launchConfig "xmldoc(\"sumo-launchd.launch.xml\")"
param *.manager.trafficLightModuleType "\"org.car2x.veins.nodes.TrafficLight\""
param *.manager.trafficLightModuleName "\"trafficLight\""
param *.manager.trafficLightModuleDisplayString default
param *.manager.trafficLightFilter "\"10\""
param *.manager.ignoreGuiCommands true
param *.trafficLight[*].mobility.x 0
param *.trafficLight[*].mobility.y 0
param *.trafficLight[*].mobility.z 3
param *.trafficLight[*].applType "\"org.car2x.veins.subprojects.veins_testsims.traci.TraCITrafficLightApp\""
param *.trafficLight[*].logicType "\"org.car2x.veins.subprojects.veins_testsims.traci.TraCITrafficLightTestLogic\""
param *.trafficLight[*].appl.headerLength "80 bit"
param *.trafficLight[*].appl.sendBeacons false
param *.trafficLight[*].appl.dataOnSch true
param *.connectionManager.sendDirect true
param *.connectionManager.maxInterfDist 2600m
param *.connectionManager.drawMaxIntfDist false
param *.**.nic.mac1609_4.useServiceChannel false
param *.**.nic.mac1609_4.txPower 20mW
param *.**.nic.mac1609_4.bitrate 18Mbps
param *.**.nic.phy80211p.minPowerLevel -110dBm
param *.**.nic.phy80211p.useNoiseFloor true
param *.**.nic.phy80211p.noiseFloor -98dBm
param *.**.nic.phy80211p.decider "xmldoc(\"config.xml\")"
param *.**.nic.phy80211p.analogueModels "xmldoc(\"config.xml\")"
param *.**.nic.phy80211p.usePropagationDelay true
param *.node[*].applType "\"org.car2x.veins.subprojects.veins_testsims.traci.TraCITestApp\""
param *.node[0].appl.testNumber 58
param *.node[*].appl.testNumber -1
param *.node[*].veinsmobilityType "\"org.car2x.veins.modules.mobility.traci.TraCIMobility\""
param *.node[*].veinsmobility.x 0
param *.node[*].veinsmobility.y 0
param *.node[*].veinsmobility.z 1.895
param *.node[*].veinsmobility.accidentCount 0
param *.node[*].veinsmobility.setHostSpeed true

vector 0 scenario.node[0].veinsmobility posx ETV
vector 1 scenario.node[0].veinsmobility posy ETV
vector 2 scenario.node[0].veinsmobility speed ETV
vector 3 scenario.node[0].veinsmobility acceleration ETV
vector 4 scenario.node[0].veinsmobility co2emission ETV
vector 5 scenario.node[1].veinsmobility posx ETV
vector 6 scenario.node[1].veinsmobility posy ETV
vector 7 scenario.node[1].veinsmobility speed ETV
vector 8 scenario.node[1].veinsmobility acceleration ETV
vector 9 scenario.node[1].veinsmobility co2emission ETV
vector 10 scenario.node[2].veinsmobility posx ETV
vector 11 scenario.node[2].veinsmobility posy ETV
vector 12 scenario.node[2].veinsmobility speed ETV
vector 13 scenario.node[2].veinsmobility acceleration ETV
vector 14 scenario.node[2].veinsmobility co2emission ETV
vector 15 scenario.node[3].veinsmobility posx ETV
vector 16 scenario.node[3].veinsmobility posy ETV
vector 17 scenario.node[3].veinsmobility speed ETV
vector 18 scenario.node[3].veinsmobility acceleration ETV
vector 19 scenario.node[3].veinsmobility co2emission ETV
vector 20 scenario.node[4].veinsmobility posx ETV
vector 21 scenario.node[4].veinsmobility posy ETV
vector 22 scenario.node[4].veinsmobility speed ETV
vector 23 scenario.node[4].veinsmobility acceleration ETV
vector 24 scenario.node[4].veinsmobility co2emission ETV
vector 25 scenario.node[5].veinsmobility posx ETV
vector 26 scenario.node[5].veinsmobility posy ETV
vector 27 scenario.node[5].veinsmobility speed ETV
vector 28 scenario.node[5].veinsmobility acceleration ETV
vector 29 scenario.node[5].veinsmobility co2emission ETV
vector 30 scenario.node[6].veinsmobility posx ETV
vector 31 scenario.node[6].veinsmobility posy ETV
vector 32 scenario.node[6].veinsmobility speed ETV
vector 33 scenario.node[6].veinsmobility acceleration ETV
vector 34 scenario.node[6].veinsmobility co2emission ETV
vector 35 scenario.node[7].veinsmobility posx ETV
vector 36 scenario.node[7].veinsmobility posy ETV
vector 37 scenario.node[7].veinsmobility speed ETV
vector 38 scenario.node[7].veinsmobility acceleration ETV
vector 39 scenario.node[7].veinsmobility co2emission ETV
vector 40 scenario.node[8].veinsmobility posx ETV
vector 41 scenario.node[8].veinsmobility posy ETV
vector 42 scenario.node[8].veinsmobility speed ETV
vector 43 scenario.node[8].veinsmobility acceleration ETV
vector 44 scenario.node[8].veinsmobility co2emission ETV
vector 45 scenario.node[9].veinsmobility posx ETV
vector 46 scenario.node[9].veinsmobility posy ETV
vector 47 scenario.node[9].veinsmobility speed ETV
vector 48 scenario.node[9].veinsmobility acceleration ETV
vector 49 scenario.node[9].veinsmobility co2emission ETV
4	8	3	9.0549579066719
4	12	4	8.4988778463559
4	14	5	0.046631045706452
4	16	6	1.346729538445
4	18	7	6.8698411864162
4	20	8	6.3845112230278
4	22	9	10.609141425341
4	24	10	0.973
4	26	11	0.973
4	28	12	0.973
4	30	13	0.973
4	32	14	0.973
4	34	15	1.1125999802452
4	36	16	1.1102770048266
4	38	17	1.1101034902093
4	40	18	1.1100235718259
4	42	19	1.110008687699
4	44	20	1.1100054551432
4	46	21	0.973
4	48	22	0.973
4	50	23	0.973
4	52	24	0.973
4	54	25	0.973
4	56	26	0.973
4	58	27	0.973
4	60	28	0.973
4	62	29	0.973
4	64	30	0.973
4	66	31	0.973
4	68	32	0.973
4	70	33	0.973
4	72	34	0.973
4	74	35	0.973
4	76	36	0.973
4	78	37	0.973
4	80	38	0.973
4	82	39	0.973
4	84	40	0.973
4	86	41	0.973
4	88	42	0.973
4	90	43	0.973
4	92	44	0.973
4	94	45	0.973
4	96	46	0.973
4	98	47	0.973
4	100	48	0.973
4	102	49	0.973
4	104	50	0.973
4	106	51	0.973
4	108	52	0.973
4	110	53	0.973
4	112	54	0.973
4	114	55	0.973
4	116	56	0.973
4	118	57	0.973
4	120	58	0.973
4	122	59	0.973
4	124	60	0.973
4	126	61	0.973
4	128	62	0.973
4	130	63	0.973
4	132	64	0.973
4	134	65	0.973
4	136	66	0.973
4	138	67	0.973
4	140	68	0.973
4	142	69	0.973
4	144	70	0.973
4	146	71	0.973
4	148	72	0.973
4	150	73	0.973
4	152	74	0.973
4	154	75	0.973
4	156	76	0.973
4	158	77	0.973
4	160	78	0.973
4	162	79	0.973
4	164	80	0.973
4	166	81	0.973
4	168	82	0.973
4	170	83	0.973
4	172	84	0.973
4	174	85	0.973
4	176	86	0.973
4	178	87	0.973
4	180	88	0.973
4	182	89	0.973
4	184	90	0.973
4	186	91	0.973
4	188	92	0.973
4	190	93	0.973
4	192	94	0.973
4	194	95	0.973
4	196	96	0.973
4	198	97	0.973
4	200	98	0.973
4	202	99	0.973
4	204	100	0.973
3	8	3	0.52293095912319
3	12	4	0.42359790159389
3	14	5	-0.69673392002005
3	16	6	-0.50619142258074
3	18	7	0.25186112383381
3	20	8	0.1763841798529
3	22	9	0.71072384552099
3	24	10	-5.6023233765891
3	26	11	-8.7788477902673
3	28	12	-9.81
3	30	13	-6.139514273573
3	32	14	-0.47616286351489
3	34	15	-0.014920677083299
3	36	16	-0.050554934459723
3	38	17	-0.0054769005162709
3	40	18	-0.0017128166504999
3	42	19	-0.00031247901913949
3	44	20	-6.7253439112011e-05
3	46	21	-0.00011312140764459
3	48	22	0
3	50	23	0
3	52	24	0
3	54	25	0
3	56	26	0
3	58	27	0
3	60	28	0
3	62	29	0
3	64	30	0
3	66	31	0
3	68	32	0
3	70	33	0
3	72	34	0
3	74	35	0
3	76	36	0
3	78	37	0
3	80	38	0
3	82	39	0
3	84	40	0
3	86	41	0
3	88	42	0
3	90	43	0
3	92	44	0
3	94	45	0
3	96	46	0
3	98	47	0
3	100	48	0
3	102	49	0
3	104	50	0
3	106	51	0
3	108	52	0
3	110	53	0
3	112	54	0
3	114	55	0
3	116	56	0
3	118	57	0
3	120	58	0
3	122	59	0
3	124	60	0
3	126	61	0
3	128	62	0
3	130	63	0
3	132	64	0
3	134	65	0
3	136	66	0
3	138	67	0
3	140	68	0
3	142	69	0
3	144	70	0
3	146	71	0
3	148	72	0
3	150	73	0
3	152	74	0
3	154	75	0
3	156	76	0
3	158	77	0
3	160	78	0
3	162	79	0
3	164	80	0
3	166	81	0
3	168	82	0
3	170	83	0
3	172	84	0
3	174	85	0
3	176	86	0
3	178	87	0
3	180	88	0
3	182	89	0
3	184	90	0
3	186	91	0
3	188	92	0
3	190	93	0
3	192	94	0
3	194	95	0
3	196	96	0
3	198	97	0
3	200	98	0
3	202	99	0
3	204	100	0
2	4	2	29.997433819196
2	8	3	30.520364778319
2	12	4	30.943962679913
2	14	5	30.247228759893
2	16	6	29.741037337312
2	18	7	29.992898461146
2	20	8	30.169282640999
2	22	9	30.88000648652
2	24	10	25.277683109931
2	26	11	16.498835319664
2	28	12	6.6888353196636
2	30	13	0.54932104609058
2	32	14	0.073158182575689
2	34	15	0.05823750549239
2	36	16	0.0076825710326669
2	38	17	0.002205670516396
2	40	18	0.00049285386589609
2	42	19	0.0001803748467566
2	44	20	0.00011312140764459
2	46	21	0
2	48	22	0
2	50	23	0
2	52	24	0
2	54	25	0
2	56	26	0
2	58	27	0
2	60	28	0
2	62	29	0
2	64	30	0
2	66	31	0
2	68	32	0
2	70	33	0
2	72	34	0
2	74	35	0
2	76	36	0
2	78	37	0
2	80	38	0
2	82	39	0
2	84	40	0
2	86	41	0
2	88	42	0
2	90	43	0
2	92	44	0
2	94	45	0
2	96	46	0
2	98	47	0
2	100	48	0
2	102	49	0
2	104	50	0
2	106	51	0
2	108	52	0
2	110	53	0
2	112	54	0
2	114	55	0
2	116	56	0
2	118	57	0
2	120	58	0
2	122	59	0
2	124	60	0
2	126	61	0
2	128	62	0
2	130	63	0
2	132	64	0
2	134	65	0
2	136	66	0
2	138	67	0
2	140	68	0
2	142	69	0
2	144	70	0
2	146	71	0
2	148	72	0
2	150	73	0
2	152	74	0
2	154	75	0
2	156	76	0
2	158	77	0
2	160	78	0
2	162	79	0
2	164	80	0
2	166	81	0
2	168	82	0
2	170	83	0
2	172	84	0
2	174	85	0
2	176	86	0
2	178	87	0
2	180	88	0
2	182	89	0
2	184	90	0
2	186	91	0
2	188	92	0
2	190	93	0
2	192	94	0
2	194	95	0
2	196	96	0
2	198	97	0
2	200	98	0
2	202	99	0
2	204	100	0
1	2	1	76.65
1	4	2	76.65
1	8	3	76.65
1	12	4	76.65
1	14	5	76.65
1	16	6	76.65
1	18	7	76.65
1	20	8	76.65
1	22	9	76.65
1	24	10	76.65
1	26	11	76.65
1	28	12	76.65
1	30	13	76.65
1	32	14	76.65
1	34	15	76.65
1	36	16	76.65
1	38	17	76.65
1	40	18	76.65
1	42	19	76.65
1	44	20	76.65
1	46	21	76.65
1	48	22	76.65
1	50	23	76.65
1	52	24	76.65
1	54	25	76.65
1	56	26	76.65
1	58	27	76.65
1	60	28	76.65
1	62	29	76.65
1	64	30	76.65
1	66	31	76.65
1	68	32	76.65
1	70	33	76.65
1	72	34	76.65
1	74	35	76.65
1	76	36	76.65
1	78	37	76.65
1	80	38	76.65
1	82	39	76.65
1	84	40	76.65
1	86	41	76.65
1	88	42	76.65
1	90	43	76.65
1	92	44	76.65
1	94	45	76.65
1	96	46	76.65
1	98	47	76.65
1	100	48	76.65
1	102	49	76.65
1	104	50	76.65
1	106	51	76.65
1	108	52	76.65
1	110	53	76.65
1	112	54	76.65
1	114	55	76.65
1	116	56	76.65
1	118	57	76.65
1	120	58	76.65
1	122	59	76.65
1	124	60	76.65
1	126	61	76.65
1	128	62	76.65
1	130	63	76.65
1	132	64	76.65
1	134	65	76.65
1	136	66	76.65
1	138	67	76.65
1	140	68	76.65
1	142	69	76.65
1	144	70	76.65
1	146	71	76.65
1	148	72	76.65
1	150	73	76.65
1	152	74	76.65
1	154	75	76.65
1	156	76	76.65
1	158	77	76.65
1	160	78	76.65
1	162	79	76.65
1	164	80	76.65
1	166	81	76.65
1	168	82	76.65
1	170	83	76.65
1	172	84	76.65
1	174	85	76.65
1	176	86	76.65
1	178	87	76.65
1	180	88	76.65
1	182	89	76.65
1	184	90	76.65
1	186	91	76.65
1	188	92	76.65
1	190	93	76.65
1	192	94	76.65
1	194	95	76.65
1	196	96	76.65
1	198	97	76.65
1	200	98	76.65
1	202	99	76.65
1	204	100	76.65
0	2	1	27.6
0	4	2	27.6
0	8	3	57.597433819196
0	12	4	88.117798597515
0	14	5	119.06176127743
0	16	6	149.30899003732
0	18	7	179.05002737463
0	20	8	209.04292583578
0	22	9	239.21220847678
0	24	10	270.0922149633
0	26	11	295.36989807323
0	28	12	311.86873339289
0	30	13	318.55756871256
0	32	14	319.10688975865
0	34	15	319.18004794122
0	36	16	319.23828544672
0	38	17	319.24596801775
0	40	18	319.24817368826
0	42	19	319.24866654213
0	44	20	319.24884691698
0	46	21	319.24896003838
0	48	22	319.24896003838
0	50	23	319.24896003838
0	52	24	319.24896003838
0	54	25	319.24896003838
0	56	26	319.24896003838
0	58	27	319.24896003838
0	60	28	319.24896003838
0	62	29	319.24896003838
0	64	30	319.24896003838
0	66	31	319.24896003838
0	68	32	319.24896003838
0	70	33	319.24896003838
0	72	34	319.24896003838
0	74	35	319.24896003838
0	76	36	319.24896003838
0	78	37	319.24896003838
0	80	38	319.24896003838
0	82	39	319.24896003838
0	84	40	319.24896003838
0	86	41	319.24896003838
0	88	42	319.24896003838
0	90	43	319.24896003838
0	92	44	319.24896003838
0	94	45	319.24896003838
0	96	46	319.24896003838
0	98	47	319.24896003838
0	100	48	319.24896003838
0	102	49	319.24896003838
0	104	50	319.24896003838
0	106	51	319.24896003838
0	108	52	319.24896003838
0	110	53	319.24896003838
0	112	54	319.24896003838
0	114	55	319.24896003838
0	116	56	319.24896003838
0	118	57	319.24896003838
0	120	58	319.24896003838
0	122	59	319.24896003838
0	124	60	319.24896003838
0	126	61	319.24896003838
0	128	62	319.24896003838
0	130	63	319.24896003838
0	132	64	319.24896003838
0	134	65	319.24896003838
0	136	66	319.24896003838
0	138	67	319.24896003838
0	140	68	319.24896003838
0	142	69	319.24896003838
0	144	70	319.24896003838
0	146	71	319.24896003838
0	148	72	319.24896003838
0	150	73	319.24896003838
0	152	74	319.24896003838
0	154	75	319.24896003838
0	156	76	319.24896003838
0	158	77	319.24896003838
0	160	78	319.24896003838
0	162	79	319.24896003838
0	164	80	319.24896003838
0	166	81	319.24896003838
0	168	82	319.24896003838
0	170	83	319.24896003838
0	172	84	319.24896003838
0	174	85	319.24896003838
0	176	86	319.24896003838
0	178	87	319.24896003838
0	180	88	319.24896003838
0	182	89	319.24896003838
0	184	90	319.24896003838
0	186	91	319.24896003838
0	188	92	319.24896003838
0	190	93	319.24896003838
0	192	94	319.24896003838
0	194	95	319.24896003838
0	196	96	319.24896003838
0	198	97	319.24896003838
0	200	98	319.24896003838
0	202	99	319.24896003838
0	204	100	319.24896003838
9	20	8	0.973
9	22	9	7.571291812718
9	24	10	5.5542453148332
9	26	11	1.4446197809318
9	28	12	8.6315642222256
9	30	13	9.2060826741665
9	32	14	0.973
9	34	15	4.7769539228436
9	36	16	0.973
9	38	17	0.973
9	40	18	0.973
9	42	19	0.973
9	44	20	0.973
9	46	21	1.1117863443988
9	48	22	1.1100415101447
9	50	23	1.1100270256483
9	52	24	1.1100109537228
9	54	25	0.973
9	56	26	0.973
9	58	27	0.973
9	60	28	0.973
9	62	29	0.973
9	64	30	0.973
9	66	31	0.973
9	68	32	0.973
9	70	33	0.973
9	72	34	0.973
9	74	35	0.973
9	76	36	0.973
9	78	37	0.973
9	80	38	0.973
9	82	39	0.973
9	84	40	0.973
9	86	41	0.973
9	88	42	0.973
9	90	43	0.973
9	92	44	0.973
9	94	45	0.973
9	96	46	0.973
9	98	47	0.973
9	100	48	0.973
9	102	49	0.973
9	104	50	0.973
9	106	51	0.973
9	108	52	0.973
9	110	53	0.973
9	112	54	0.973
9	114	55	0.973
9	116	56	0.973
9	118	57	0.973
9	120	58	0.973
9	122	59	0.973
9	124	60	0.973
9	126	61	0.973
9	128	62	0.973
9	130	63	0.973
9	132	64	0.973
9	134	65	0.973
9	136	66	0.973
9	138	67	0.973
9	140	68	0.973
9	142	69	0.973
9	144	70	0.973
9	146	71	0.973
9	148	72	0.973
9	150	73	0.973
9	152	74	0.973
9	154	75	0.973
9	156	76	0.973
9	158	77	0.973
9	160	78	0.973
9	162	79	0.973
9	164	80	0.973
9	166	81	0.973
9	168	82	0.973
9	170	83	0.973
9	172	84	0.973
9	174	85	0.973
9	176	86	0.973
9	178	87	0.973
9	180	88	0.973
9	182	89	0.973
9	184	90	0.973
9	186	91	0.973
9	188	92	0.973
9	190	93	0.973
9	192	94	0.973
9	194	95	0.973
9	196	96	0.973
9	198	97	0.973
9	200	98	0.973
9	202	99	0.973
9	204	100	0.973
8	20	8	-0.89912858465686
8	22	9	0.44805449608248
8	24	10	0.14435671095271
8	26	11	-0.4477252420038
8	28	12	0.58708500838839
8	30	13	0.63133426685818
8	32	14	-1.0425417660736
8	34	15	0.039854969247244
8	36	16	-8.6737422162491
8	38	17	-9.3978515568522
8	40	18	-7.726532620384
8	42	19	-1.7064166429838
8	44	20	-0.45495352506394
8	46	21	-0.058518836392356
8	48	22	-0.051172329279197
8	50	23	-0.00059412993504426
8	52	24	-0.00033445374105306
8	54	25	-0.00022744726021163
8	56	26	0
8	58	27	0
8	60	28	0
8	62	29	0
8	64	30	0
8	66	31	0
8	68	32	0
8	70	33	0
8	72	34	0
8	74	35	0
8	76	36	0
8	78	37	0
8	80	38	0
8	82	39	0
8	84	40	0
8	86	41	0
8	88	42	0
8	90	43	0
8	92	44	0
8	94	45	0
8	96	46	0
8	98	47	0
8	100	48	0
8	102	49	0
8	104	50	0
8	106	51	0
8	108	52	0
8	110	53	0
8	112	54	0
8	114	55	0
8	116	56	0
8	118	57	0
8	120	58	0
8	122	59	0
8	124	60	0
8	126	61	0
8	128	62	0
8	130	63	0
8	132	64	0
8	134	65	0
8	136	66	0
8	138	67	0
8	140	68	0
8	142	69	0
8	144	70	0
8	146	71	0
8	148	72	0
8	150	73	0
8	152	74	0
8	154	75	0
8	156	76	0
8	158	77	0
8	160	78	0
8	162	79	0
8	164	80	0
8	166	81	0
8	168	82	0
8	170	83	0
8	172	84	0
8	174	85	0
8	176	86	0
8	178	87	0
8	180	88	0
8	182	89	0
8	184	90	0
8	186	91	0
8	188	92	0
8	190	93	0
8	192	94	0
8	194	95	0
8	196	96	0
8	198	97	0
8	200	98	0
8	202	99	0
8	204	100	0
7	18	7	28.609053899346
7	20	8	27.709925314689
7	22	9	28.157979810772
7	24	10	28.302336521724
7	26	11	27.854611279721
7	28	12	28.441696288109
7	30	13	29.073030554967
7	32	14	28.030488788894
7	34	15	28.070343758141
7	36	16	19.396601541892
7	38	17	9.9987499850396
7	40	18	2.2722173646556
7	42	19	0.5658007216718
7	44	20	0.11084719660786
7	46	21	0.052328360215506
7	48	22	0.001156030936309
7	50	23	0.00056190100126469
7	52	24	0.00022744726021163
7	54	25	0
7	56	26	0
7	58	27	0
7	60	28	0
7	62	29	0
7	64	30	0
7	66	31	0
7	68	32	0
7	70	33	0
7	72	34	0
7	74	35	0
7	76	36	0
7	78	37	0
7	80	38	0
7	82	39	0
7	84	40	0
7	86	41	0
7	88	42	0
7	90	43	0
7	92	44	0
7	94	45	0
7	96	46	0
7	98	47	0
7	100	48	0
7	102	49	0
7	104	50	0
7	106	51	0
7	108	52	0
7	110	53	0
7	112	54	0
7	114	55	0
7	116	56	0
7	118	57	0
7	120	58	0
7	122	59	0
7	124	60	0
7	126	61	0
7	128	62	0
7	130	63	0
7	132	64	0
7	134	65	0
7	136	66	0
7	138	67	0
7	140	68	0
7	142	69	0
7	144	70	0
7	146	71	0
7	148	72	0
7	150	73	0
7	152	74	0
7	154	75	0
7	156	76	0
7	158	77	0
7	160	78	0
7	162	79	0
7	164	80	0
7	166	81	0
7	168	82	0
7	170	83	0
7	172	84	0
7	174	85	0
7	176	86	0
7	178	87	0
7	180	88	0
7	182	89	0
7	184	90	0
7	186	91	0
7	188	92	0
7	190	93	0
7	192	94	0
7	194	95	0
7	196	96	0
7	198	97	0
7	200	98	0
7	202	99	0
7	204	100	0
6	16	6	76.65
6	18	7	76.65
6	20	8	76.65
6	22	9	76.65
6	24	10	76.65
6	26	11	76.65
6	28	12	76.65
6	30	13	76.65
6	32	14	76.65
6	34	15	76.65
6	36	16	76.65
6	38	17	76.65
6	40	18	76.65
6	42	19	76.65
6	44	20	76.65
6	46	21	76.65
6	48	22	76.65
6	50	23	76.65
6	52	24	76.65
6	54	25	76.65
6	56	26	76.65
6	58	27	76.65
6	60	28	76.65
6	62	29	76.65
6	64	30	76.65
6	66	31	76.65
6	68	32	76.65
6	70	33	76.65
6	72	34	76.65
6	74	35	76.65
6	76	36	76.65
6	78	37	76.65
6	80	38	76.65
6	82	39	76.65
6	84	40	76.65
6	86	41	76.65
6	88	42	76.65
6	90	43	76.65
6	92	44	76.65
6	94	45	76.65
6	96	46	76.65
6	98	47	76.65
6	100	48	76.65
6	102	49	76.65
6	104	50	76.65
6	106	51	76.65
6	108	52	76.65
6	110	53	76.65
6	112	54	76.65
6	114	55	76.65
6	116	56	76.65
6	118	57	76.65
6	120	58	76.65
6	122	59	76.65
6	124	60	76.65
6	126	61	76.65
6	128	62	76.65
6	130	63	76.65
6	132	64	76.65
6	134	65	76.65
6	136	66	76.65
6	138	67	76.65
6	140	68	76.65
6	142	69	76.65
6	144	70	76.65
6	146	71	76.65
6	148	72	76.65
6	150	73	76.65
6	152	74	76.65
6	154	75	76.65
6	156	76	76.65
6	158	77	76.65
6	160	78	76.65
6	162	79	76.65
6	164	80	76.65
6	166	81	76.65
6	168	82	76.65
6	170	83	76.65
6	172	84	76.65
6	174	85	76.65
6	176	86	76.65
6	178	87	76.65
6	180	88	76.65
6	182	89	76.65
6	184	90	76.65
6	186	91	76.65
6	188	92	76.65
6	190	93	76.65
6	192	94	76.65
6	194	95	76.65
6	196	96	76.65
6	198	97	76.65
6	200	98	76.65
6	202	99	76.65
6	204	100	76.65
5	16	6	27.6
5	18	7	27.6
5	20	8	56.209053899346
5	22	9	83.918979214035
5	24	10	112.07695902481
5	26	11	140.37929554653
5	28	12	168.23390682625
5	30	13	196.67560311436
5	32	14	225.74863366933
5	34	15	253.77912245822
5	36	16	281.84946621636
5	38	17	301.24606775825
5	40	18	311.24481774329
5	42	19	313.51703510795
5	44	20	314.08283582962
5	46	21	314.19368302623
5	48	22	314.24601138644
5	50	23	314.24716741738
5	52	24	314.24772931838
5	54	25	314.24795676564
5	56	26	314.24795676564
5	58	27	314.24795676564
5	60	28	314.24795676564
5	62	29	314.24795676564
5	64	30	314.24795676564
5	66	31	314.24795676564
5	68	32	314.24795676564
5	70	33	314.24795676564
5	72	34	314.24795676564
5	74	35	314.24795676564
5	76	36	314.24795676564
5	78	37	314.24795676564
5	80	38	314.24795676564
5	82	39	314.24795676564
5	84	40	314.24795676564
5	86	41	314.24795676564
5	88	42	314.24795676564
5	90	43	314.24795676564
5	92	44	314.24795676564
5	94	45	314.24795676564
5	96	46	314.24795676564
5	98	47	314.24795676564
5	100	48	314.24795676564
5	102	49	314.24795676564
5	104	50	314.24795676564
5	106	51	314.24795676564
5	108	52	314.24795676564
5	110	53	314.24795676564
5	112	54	314.24795676564
5	114	55	314.24795676564
5	116	56	314.24795676564
5	118	57	314.24795676564
5	120	58	314.24795676564
5	122	59	314.24795676564
5	124	60	314.24795676564
5	126	61	314.24795676564
5	128	62	314.24795676564
5	130	63	314.24795676564
5	132	64	314.24795676564
5	134	65	314.24795676564
5	136	66	314.24795676564
5	138	67	314.24795676564
5	140	68	314.24795676564
5	142	69	314.24795676564
5	144	70	314.24795676564
5	146	71	314.24795676564
5	148	72	314.24795676564
5	150	73	314.24795676564
5	152	74	314.24795676564
5	154	75	314.24795676564
5	156	76	314.24795676564
5	158	77	314.24795676564
5	160	78	314.24795676564
5	162	79	314.24795676564
5	164	80	314.24795676564
5	166	81	314.24795676564
5	168	82	314.24795676564
5	170	83	314.24795676564
5	172	84	314.24795676564
5	174	85	314.24795676564
5	176	86	314.24795676564
5	178	87	314.24795676564
5	180	88	314.24795676564
5	182	89	314.24795676564
5	184	90	314.24795676564
5	186	91	314.24795676564
5	188	92	314.24795676564
5	190	93	314.24795676564
5	192	94	314.24795676564
5	194	95	314.24795676564
5	196	96	314.24795676564
5	198	97	314.24795676564
5	200	98	314.24795676564
5	202	99	314.24795676564
5	204	100	314.24795676564
14	30	13	0.973
14	32	14	4.3729879805779
14	34	15	8.8381248682011
14	36	16	6.1443901092633
14	38	17	0.15586116913647
14	40	18	6.3080158955641
14	42	19	8.8384403009795
14	44	20	1.9146964485542
14	46	21	0.973
14	48	22	0.973
14	50	23	0.973
14	52	24	0.973
14	54	25	0.973
14	56	26	1.1107632844789
14	58	27	1.1101231793314
14	60	28	1.1100777365246
14	62	29	1.1100134470301
14	64	30	0.973
14	66	31	1.1100069058907
14	68	32	0.973
14	70	33	0.973
14	72	34	0.973
14	74	35	0.973
14	76	36	0.973
14	78	37	0.973
14	80	38	0.973
14	82	39	0.973
14	84	40	0.973
14	86	41	0.973
14	88	42	0.973
14	90	43	0.973
14	92	44	0.973
14	94	45	0.973
14	96	46	0.973
14	98	47	0.973
14	100	48	0.973
14	102	49	0.973
14	104	50	0.973
14	106	51	0.973
14	108	52	0.973
14	110	53	0.973
14	112	54	0.973
14	114	55	0.973
14	116	56	0.973
14	118	57	0.973
14	120	58	0.973
14	122	59	0.973
14	124	60	0.973
14	126	61	0.973
14	128	62	0.973
14	130	63	0.973
14	132	64	0.973
14	134	65	0.973
14	136	66	0.973
14	138	67	0.973
14	140	68	0.973
14	142	69	0.973
14	144	70	0.973
14	146	71	0.973
14	148	72	0.973
14	150	73	0.973
14	152	74	0.973
14	154	75	0.973
14	156	76	0.973
14	158	77	0.973
14	160	78	0.973
14	162	79	0.973
14	164	80	0.973
14	166	81	0.973
14	168	82	0.973
14	170	83	0.973
14	172	84	0.973
14	174	85	0.973
14	176	86	0.973
14	178	87	0.973
14	180	88	0.973
14	182	89	0.973
14	184	90	0.973
14	186	91	0.973
14	188	92	0.973
14	190	93	0.973
14	192	94	0.973
14	194	95	0.973
14	196	96	0.973
14	198	97	0.973
14	200	98	0.973
14	202	99	0.973
14	204	100	0.973
13	30	13	-1.0121632965747
13	32	14	0.014476087060757
13	34	15	0.6544062285684
13	36	16	0.24133810924832
13	38	17	-0.63323444430716
13	40	18	0.28271973493975
13	42	19	0.62254243553616
13	44	20	-0.38079625507817
13	46	21	-8.5923555620309
13	48	22	-8.9722043103237
13	50	23	-8.7777298159208
13	52	24	-1.4535598098792
13	54	25	-0.14914846562435
13	56	26	-0.013217273006122
13	58	27	-0.014192955401766
13	60	28	-0.0011277582671416
13	62	29	-0.0013399529092577
13	64	30	-0.00028063130189585
13	66	31	0.00014305469924084
13	68	32	-0.00014305469924084
13	70	33	0
13	72	34	0
13	74	35	0
13	76	36	0
13	78	37	0
13	80	38	0
13	82	39	0
13	84	40	0
13	86	41	0
13	88	42	0
13	90	43	0
13	92	44	0
13	94	45	0
13	96	46	0
13	98	47	0
13	100	48	0
13	102	49	0
13	104	50	0
13	106	51	0
13	108	52	0
13	110	53	0
13	112	54	0
13	114	55	0
13	116	56	0
13	118	57	0
13	120	58	0
13	122	59	0
13	124	60	0
13	126	61	0
13	128	62	0
13	130	63	0
13	132	64	0
13	134	65	0
13	136	66	0
13	138	67	0
13	140	68	0
13	142	69	0
13	144	70	0
13	146	71	0
13	148	72	0
13	150	73	0
13	152	74	0
13	154	75	0
13	156	76	0
13	158	77	0
13	160	78	0
13	162	79	0
13	164	80	0
13	166	81	0
13	168	82	0
13	170	83	0
13	172	84	0
13	174	85	0
13	176	86	0
13	178	87	0
13	180	88	0
13	182	89	0
13	184	90	0
13	186	91	0
13	188	92	0
13	190	93	0
13	192	94	0
13	194	95	0
13	196	96	0
13	198	97	0
13	200	98	0
13	202	99	0
13	204	100	0
12	28	12	28.185867935272
12	30	13	27.173704638697
12	32	14	27.188180725758
12	34	15	27.842586954326
12	36	16	28.083925063575
12	38	17	27.450690619267
12	40	18	27.733410354207
12	42	19	28.355952789743
12	44	20	27.975156534665
12	46	21	19.382800972634
12	48	22	10.410596662311
12	50	23	1.6328668463898
12	52	24	0.17930703651053
12	54	25	0.030158570886183
12	56	26	0.016941297880061
12	58	27	0.0027483424782952
12	60	28	0.0016205842111536
12	62	29	0.00028063130189585
12	64	30	0
12	66	31	0.00014305469924084
12	68	32	0
12	70	33	0
12	72	34	0
12	74	35	0
12	76	36	0
12	78	37	0
12	80	38	0
12	82	39	0
12	84	40	0
12	86	41	0
12	88	42	0
12	90	43	0
12	92	44	0
12	94	45	0
12	96	46	0
12	98	47	0
12	100	48	0
12	102	49	0
12	104	50	0
12	106	51	0
12	108	52	0
12	110	53	0
12	112	54	0
12	114	55	0
12	116	56	0
12	118	57	0
12	120	58	0
12	122	59	0
12	124	60	0
12	126	61	0
12	128	62	0
12	130	63	0
12	132	64	0
12	134	65	0
12	136	66	0
12	138	67	0
12	140	68	0
12	142	69	0
12	144	70	0
12	146	71	0
12	148	72	0
12	150	73	0
12	152	74	0
12	154	75	0
12	156	76	0
12	158	77	0
12	160	78	0
12	162	79	0
12	164	80	0
12	166	81	0
12	168	82	0
12	170	83	0
12	172	84	0
12	174	85	0
12	176	86	0
12	178	87	0
12	180	88	0
12	182	89	0
12	184	90	0
12	186	91	0
12	188	92	0
12	190	93	0
12	192	94	0
12	194	95	0
12	196	96	0
12	198	97	0
12	200	98	0
12	202	99	0
12	204	100	0
11	26	11	76.65
11	28	12	76.65
11	30	13	76.65
11	32	14	76.65
11	34	15	76.65
11	36	16	76.65
11	38	17	76.65
11	40	18	76.65
11	42	19	76.65
11	44	20	76.65
11	46	21	76.65
11	48	22	76.65
11	50	23	76.65
11	52	24	76.65
11	54	25	76.65
11	56	26	76.65
11	58	27	76.65
11	60	28	76.65
11	62	29	76.65
11	64	30	76.65
11	66	31	76.65
11	68	32	76.65
11	70	33	76.65
11	72	34	76.65
11	74	35	76.65
11	76	36	76.65
11	78	37	76.65
11	80	38	76.65
11	82	39	76.65
11	84	40	76.65
11	86	41	76.65
11	88	42	76.65
11	90	43	76.65
11	92	44	76.65
11	94	45	76.65
11	96	46	76.65
11	98	47	76.65
11	100	48	76.65
11	102	49	76.65
11	104	50	76.65
11	106	51	76.65
11	108	52	76.65
11	110	53	76.65
11	112	54	76.65
11	114	55	76.65
11	116	56	76.65
11	118	57	76.65
11	120	58	76.65
11	122	59	76.65
11	124	60	76.65
11	126	61	76.65
11	128	62	76.65
11	130	63	76.65
11	132	64	76.65
11	134	65	76.65
11	136	66	76.65
11	138	67	76.65
11	140	68	76.65
11	142	69	76.65
11	144	70	76.65
11	146	71	76.65
11	148	72	76.65
11	150	73	76.65
11	152	74	76.65
11	154	75	76.65
11	156	76	76.65
11	158	77	76.65
11	160	78	76.65
11	162	79	76.65
11	164	80	76.65
11	166	81	76.65
11	168	82	76.65
11	170	83	76.65
11	172	84	76.65
11	174	85	76.65
11	176	86	76.65
11	178	87	76.65
11	180	88	76.65
11	182	89	76.65
11	184	90	76.65
11	186	91	76.65
11	188	92	76.65
11	190	93	76.65
11	192	94	76.65
11	194	95	76.65
11	196	96	76.65
11	198	97	76.65
11	200	98	76.65
11	202	99	76.65
11	204	100	76.65
10	26	11	27.6
10	28	12	27.6
10	30	13	55.785867935272
10	32	14	82.959572573969
10	34	15	110.14775329973
10	36	16	137.99034025405
10	38	17	166.07426531763
10	40	18	193.52495593689
10	42	19	221.2583662911
10	44	20	249.61431908085
10	46	21	277.58947561551
10	48	22	296.97227658814
10	50	23	307.38287325046
10	52	24	309.01574009684
10	54	25	309.19504713336
10	56	26	309.22520570424
10	58	27	309.24214700212
10	60	28	309.2448953446
10	62	29	309.24651592881
10	64	30	309.24679656011
10	66	31	309.24679656011
10	68	32	309.24693961481
10	70	33	309.24693961481
10	72	34	309.24693961481
10	74	35	309.24693961481
10	76	36	309.24693961481
10	78	37	309.24693961481
10	80	38	309.24693961481
10	82	39	309.24693961481
10	84	40	309.24693961481
10	86	41	309.24693961481
10	88	42	309.24693961481
10	90	43	309.24693961481
10	92	44	309.24693961481
10	94	45	309.24693961481
10	96	46	309.24693961481
10	98	47	309.24693961481
10	100	48	309.24693961481
10	102	49	309.24693961481
10	104	50	309.24693961481
10	106	51	309.24693961481
10	108	52	309.24693961481
10	110	53	309.24693961481
10	112	54	309.24693961481
10	114	55	309.24693961481
10	116	56	309.24693961481
10	118	57	309.24693961481
10	120	58	309.24693961481
10	122	59	309.24693961481
10	124	60	309.24693961481
10	126	61	309.24693961481
10	128	62	309.24693961481
10	130	63	309.24693961481
10	132	64	309.24693961481
10	134	65	309.24693961481
10	136	66	309.24693961481
10	138	67	309.24693961481
10	140	68	309.24693961481
10	142	69	309.24693961481
10	144	70	309.24693961481
10	146	71	309.24693961481
10	148	72	309.24693961481
10	150	73	309.24693961481
10	152	74	309.24693961481
10	154	75	309.24693961481
10	156	76	309.24693961481
10	158	77	309.24693961481
10	160	78	309.24693961481
10	162	79	309.24693961481
10	164	80	309.24693961481
10	166	81	309.24693961481
10	168	82	309.24693961481
10	170	83	309.24693961481
10	172	84	309.24693961481
10	174	85	309.24693961481
10	176	86	309.24693961481
10	178	87	309.24693961481
10	180	88	309.24693961481
10	182	89	309.24693961481
10	184	90	309.24693961481
10	186	91	309.24693961481
10	188	92	309.24693961481
10	190	93	309.24693961481
10	192	94	309.24693961481
10	194	95	309.24693961481
10	196	96	309.24693961481
10	198	97	309.24693961481
10	200	98	309.24693961481
10	202	99	309.24693961481
10	204	100	309.24693961481
19	40	18	0.973
19	42	19	8.7656023505817
19	44	20	2.8067614496698
19	46	21	2.4722530214755
19	48	22	6.1995125269225
19	50	23	5.1887010820362
19	52	24	0.57091125970782
19	54	25	11.87411174321
19	56	26	0.973
19	58	27	0.973
19	60	28	0.973
19	62	29	0.973
19	64	30	1.1100242654042
19	66	31	1.1100146193485
19	68	32	1.1100070199749
19	70	33	0.973
19	72	34	0.973
19	74	35	0.973
19	76	36	0.973
19	78	37	0.973
19	80	38	0.973
19	82	39	0.973
19	84	40	0.973
19	86	41	0.973
19	88	42	0.973
19	90	43	0.973
19	92	44	0.973
19	94	45	0.973
19	96	46	0.973
19	98	47	0.973
19	100	48	0.973
19	102	49	0.973
19	104	50	0.973
19	106	51	0.973
19	108	52	0.973
19	110	53	0.973
19	112	54	0.973
19	114	55	0.973
19	116	56	0.973
19	118	57	0.973
19	120	58	0.973
19	122	59	0.973
19	124	60	0.973
19	126	61	0.973
19	128	62	0.973
19	130	63	0.973
19	132	64	0.973
19	134	65	0.973
19	136	66	0.973
19	138	67	0.973
19	140	68	0.973
19	142	69	0.973
19	144	70	0.973
19	146	71	0.973
19	148	72	0.973
19	150	73	0.973
19	152	74	0.973
19	154	75	0.973
19	156	76	0.973
19	158	77	0.973
19	160	78	0.973
19	162	79	0.973
19	164	80	0.973
19	166	81	0.973
19	168	82	0.973
19	170	83	0.973
19	172	84	0.973
19	174	85	0.973
19	176	86	0.973
19	178	87	0.973
19	180	88	0.973
19	182	89	0.973
19	184	90	0.973
19	186	91	0.973
19	188	92	0.973
19	190	93	0.973
19	192	94	0.973
19	194	95	0.973
19	196	96	0.973
19	198	97	0.973
19	200	98	0.973
19	202	99	0.973
19	204	100	0.973
18	40	18	-1.0027814763598
18	42	19	0.6573272900423
18	44	20	-0.23075939028058
18	46	21	-0.27363085106481
18	48	22	0.28272506373469
18	50	23	0.12425474915653
18	52	24	-0.56181455100887
18	54	25	1.0902286822675
18	56	26	-8.6155558883406
18	58	27	-9.5175490355088
18	60	28	-9.6649806995665
18	62	29	-0.24080195749312
18	64	30	-0.014718275655653
18	66	31	-0.00023951893992612
18	68	32	-0.0001577808919491
18	70	33	-0.00014563666532833
18	72	34	0
18	74	35	0
18	76	36	0
18	78	37	0
18	80	38	0
18	82	39	0
18	84	40	0
18	86	41	0
18	88	42	0
18	90	43	0
18	92	44	0
18	94	45	0
18	96	46	0
18	98	47	0
18	100	48	0
18	102	49	0
18	104	50	0
18	106	51	0
18	108	52	0
18	110	53	0
18	112	54	0
18	114	55	0
18	116	56	0
18	118	57	0
18	120	58	0
18	122	59	0
18	124	60	0
18	126	61	0
18	128	62	0
18	130	63	0
18	132	64	0
18	134	65	0
18	136	66	0
18	138	67	0
18	140	68	0
18	142	69	0
18	144	70	0
18	146	71	0
18	148	72	0
18	150	73	0
18	152	74	0
18	154	75	0
18	156	76	0
18	158	77	0
18	160	78	0
18	162	79	0
18	164	80	0
18	166	81	0
18	168	82	0
18	170	83	0
18	172	84	0
18	174	85	0
18	176	86	0
18	178	87	0
18	180	88	0
18	182	89	0
18	184	90	0
18	186	91	0
18	188	92	0
18	190	93	0
18	192	94	0
18	194	95	0
18	196	96	0
18	198	97	0
18	200	98	0
18	202	99	0
18	204	100	0
17	38	17	27.968599276575
17	40	18	26.965817800215
17	42	19	27.623145090257
17	44	20	27.392385699977
17	46	21	27.118754848912
17	48	22	27.401479912647
17	50	23	27.525734661803
17	52	24	26.963920110794
17	54	25	28.054148793062
17	56	26	19.438592904721
17	58	27	9.9210438692125
17	60	28	0.25606316964598
17	62	29	0.015261212152857
17	64	30	0.00054293649720356
17	66	31	0.00030341755727743
17	68	32	0.00014563666532833
17	70	33	0
17	72	34	0
17	74	35	0
17	76	36	0
17	78	37	0
17	80	38	0
17	82	39	0
17	84	40	0
17	86	41	0
17	88	42	0
17	90	43	0
17	92	44	0
17	94	45	0
17	96	46	0
17	98	47	0
17	100	48	0
17	102	49	0
17	104	50	0
17	106	51	0
17	108	52	0
17	110	53	0
17	112	54	0
17	114	55	0
17	116	56	0
17	118	57	0
17	120	58	0
17	122	59	0
17	124	60	0
17	126	61	0
17	128	62	0
17	130	63	0
17	132	64	0
17	134	65	0
17	136	66	0
17	138	67	0
17	140	68	0
17	142	69	0
17	144	70	0
17	146	71	0
17	148	72	0
17	150	73	0
17	152	74	0
17	154	75	0
17	156	76	0
17	158	77	0
17	160	78	0
17	162	79	0
17	164	80	0
17	166	81	0
17	168	82	0
17	170	83	0
17	172	84	0
17	174	85	0
17	176	86	0
17	178	87	0
17	180	88	0
17	182	89	0
17	184	90	0
17	186	91	0
17	188	92	0
17	190	93	0
17	192	94	0
17	194	95	0
17	196	96	0
17	198	97	0
17	200	98	0
17	202	99	0
17	204	100	0
16	36	16	76.65
16	38	17	76.65
16	40	18	76.65
16	42	19	76.65
16	44	20	76.65
16	46	21	76.65
16	48	22	76.65
16	50	23	76.65
16	52	24	76.65
16	54	25	76.65
16	56	26	76.65
16	58	27	76.65
16	60	28	76.65
16	62	29	76.65
16	64	30	76.65
16	66	31	76.65
16	68	32	76.65
16	70	33	76.65
16	72	34	76.65
16	74	35	76.65
16	76	36	76.65
16	78	37	76.65
16	80	38	76.65
16	82	39	76.65
16	84	40	76.65
16	86	41	76.65
16	88	42	76.65
16	90	43	76.65
16	92	44	76.65
16	94	45	76.65
16	96	46	76.65
16	98	47	76.65
16	100	48	76.65
16	102	49	76.65
16	104	50	76.65
16	106	51	76.65
16	108	52	76.65
16	110	53	76.65
16	112	54	76.65
16	114	55	76.65
16	116	56	76.65
16	118	57	76.65
16	120	58	76.65
16	122	59	76.65
16	124	60	76.65
16	126	61	76.65
16	128	62	76.65
16	130	63	76.65
16	132	64	76.65
16	134	65	76.65
16	136	66	76.65
16	138	67	76.65
16	140	68	76.65
16	142	69	76.65
16	144	70	76.65
16	146	71	76.65
16	148	72	76.65
16	150	73	76.65
16	152	74	76.65
16	154	75	76.65
16	156	76	76.65
16	158	77	76.65
16	160	78	76.65
16	162	79	76.65
16	164	80	76.65
16	166	81	76.65
16	168	82	76.65
16	170	83	76.65
16	172	84	76.65
16	174	85	76.65
16	176	86	76.65
16	178	87	76.65
16	180	88	76.65
16	182	89	76.65
16	184	90	76.65
16	186	91	76.65
16	188	92	76.65
16	190	93	76.65
16	192	94	76.65
16	194	95	76.65
16	196	96	76.65
16	198	97	76.65
16	200	98	76.65
16	202	99	76.65
16	204	100	76.65
15	36	16	27.6
15	38	17	27.6
15	40	18	55.568599276575
15	42	19	82.53441707679
15	44	20	110.15756216705
15	46	21	137.54994786702
15	48	22	164.66870271594
15	50	23	192.07018262858
15	52	24	219.59591729039
15	54	25	246.55983740118
15	56	26	274.61398619424
15	58	27	294.05257909896
15	60	28	303.97362296818
15	62	29	304.22968613782
15	64	30	304.24494734998
15	66	31	304.24549028647
15	68	32	304.24579370403
15	70	33	304.24593934069
15	72	34	304.24593934069
15	74	35	304.24593934069
15	76	36	304.24593934069
15	78	37	304.24593934069
15	80	38	304.24593934069
15	82	39	304.24593934069
15	84	40	304.24593934069
15	86	41	304.24593934069
15	88	42	304.24593934069
15	90	43	304.24593934069
15	92	44	304.24593934069
15	94	45	304.24593934069
15	96	46	304.24593934069
15	98	47	304.24593934069
15	100	48	304.24593934069
15	102	49	304.24593934069
15	104	50	304.24593934069
15	106	51	304.24593934069
15	108	52	304.24593934069
15	110	53	304.24593934069
15	112	54	304.24593934069
15	114	55	304.24593934069
15	116	56	304.24593934069
15	118	57	304.24593934069
15	120	58	304.24593934069
15	122	59	304.24593934069
15	124	60	304.24593934069
15	126	61	304.24593934069
15	128	62	304.24593934069
15	130	63	304.24593934069
15	132	64	304.24593934069
15	134	65	304.24593934069
15	136	66	304.24593934069
15	138	67	304.24593934069
15	140	68	304.24593934069
15	142	69	304.24593934069
15	144	70	304.24593934069
15	146	71	304.24593934069
15	148	72	304.24593934069
15	150	73	304.24593934069
15	152	74	304.24593934069
15	154	75	304.24593934069
15	156	76	304.24593934069
15	158	77	304.24593934069
15	160	78	304.24593934069
15	162	79	304.24593934069
15	164	80	304.24593934069
15	166	81	304.24593934069
15	168	82	304.24593934069
15	170	83	304.24593934069
15	172	84	304.24593934069
15	174	85	304.24593934069
15	176	86	304.24593934069
15	178	87	304.24593934069
15	180	88	304.24593934069
15	182	89	304.24593934069
15	184	90	304.24593934069
15	186	91	304.24593934069
15	188	92	304.24593934069
15	190	93	304.24593934069
15	192	94	304.24593934069
15	194	95	304.24593934069
15	196	96	304.24593934069
15	198	97	304.24593934069
15	200	98	304.24593934069
15	202	99	304.24593934069
15	204	100	304.24593934069
24	50	23	1.7198140054505
24	52	24	6.1081315522163
24	54	25	0.45128873086585
24	56	26	3.9248539072026
24	58	27	5.9903169423355
24	60	28	5.5287536501706
24	62	29	0.973
24	64	30	6.9005996942308
24	66	31	2.3825607217948
24	68	32	0.973
24	70	33	0.973
24	72	34	0.973
24	74	35	0.973
24	76	36	0.973
24	78	37	0.973
24	80	38	1.1104065630792
24	82	39	1.1102541143053
24	84	40	1.1100225477178
24	86	41	1.1100050391703
24	88	42	0.973
24	90	43	0.973
24	92	44	0.973
24	94	45	0.973
24	96	46	0.973
24	98	47	0.973
24	100	48	0.973
24	102	49	0.973
24	104	50	0.973
24	106	51	0.973
24	108	52	0.973
24	110	53	0.973
24	112	54	0.973
24	114	55	0.973
24	116	56	0.973
24	118	57	0.973
24	120	58	0.973
24	122	59	0.973
24	124	60	0.973
24	126	61	0.973
24	128	62	0.973
24	130	63	0.973
24	132	64	0.973
24	134	65	0.973
24	136	66	0.973
24	138	67	0.973
24	140	68	0.973
24	142	69	0.973
24	144	70	0.973
24	146	71	0.973
24	148	72	0.973
24	150	73	0.973
24	152	74	0.973
24	154	75	0.973
24	156	76	0.973
24	158	77	0.973
24	160	78	0.973
24	162	79	0.973
24	164	80	0.973
24	166	81	0.973
24	168	82	0.973
24	170	83	0.973
24	172	84	0.973
24	174	85	0.973
24	176	86	0.973
24	178	87	0.973
24	180	88	0.973
24	182	89	0.973
24	184	90	0.973
24	186	91	0.973
24	188	92	0.973
24	190	93	0.973
24	192	94	0.973
24	194	95	0.973
24	196	96	0.973
24	198	97	0.973
24	200	98	0.973
24	202	99	0.973
24	204	100	0.973
23	50	23	-0.30073112924583
23	52	24	0.45402796100825
23	54	25	-0.52526372484863
23	56	26	0.090403794078156
23	58	27	0.43355912924744
23	60	28	0.3361811946379
23	62	29	-0.91208067757543
23	64	30	0.59132538351696
23	66	31	-0.19059957785066
23	68	32	-2.5903009165765
23	70	33	-9.1459470154724
23	72	34	-9.81
23	74	35	-1.7127007390017
23	76	36	-0.19323464633827
23	78	37	-0.12448015220085
23	80	38	-0.037809927084794
23	82	39	-0.0049883004125388
23	84	40	-0.0049231469313107
23	86	41	-0.00037453675358546
23	88	42	-0.00010465623771787
23	90	43	0
23	92	44	0
23	94	45	0
23	96	46	0
23	98	47	0
23	100	48	0
23	102	49	0
23	104	50	0
23	106	51	0
23	108	52	0
23	110	53	0
23	112	54	0
23	114	55	0
23	116	56	0
23	118	57	0
23	120	58	0
23	122	59	0
23	124	60	0
23	126	61	0
23	128	62	0
23	130	63	0
23	132	64	0
23	134	65	0
23	136	66	0
23	138	67	0
23	140	68	0
23	142	69	0
23	144	70	0
23	146	71	0
23	148	72	0
23	150	73	0
23	152	74	0
23	154	75	0
23	156	76	0
23	158	77	0
23	160	78	0
23	162	79	0
23	164	80	0
23	166	81	0
23	168	82	0
23	170	83	0
23	172	84	0
23	174	85	0
23	176	86	0
23	178	87	0
23	180	88	0
23	182	89	0
23	184	90	0
23	186	91	0
23	188	92	0
23	190	93	0
23	192	94	0
23	194	95	0
23	196	96	0
23	198	97	0
23	200	98	0
23	202	99	0
23	204	100	0
22	48	22	23.648041684041
22	50	23	23.347310554796
22	52	24	23.801338515804
22	54	25	23.276074790955
22	56	26	23.366478585033
22	58	27	23.800037714281
22	60	28	24.136218908919
22	62	29	23.224138231343
22	64	30	23.81546361486
22	66	31	23.62486403701
22	68	32	21.034563120433
22	70	33	11.888616104961
22	72	34	2.0786161049608
22	74	35	0.36591536595906
22	76	36	0.1726807196208
22	78	37	0.048200567419947
22	80	38	0.010390640335153
22	82	39	0.0054023399226141
22	84	40	0.00047919299130334
22	86	41	0.00010465623771787
22	88	42	0
22	90	43	0
22	92	44	0
22	94	45	0
22	96	46	0
22	98	47	0
22	100	48	0
22	102	49	0
22	104	50	0
22	106	51	0
22	108	52	0
22	110	53	0
22	112	54	0
22	114	55	0
22	116	56	0
22	118	57	0
22	120	58	0
22	122	59	0
22	124	60	0
22	126	61	0
22	128	62	0
22	130	63	0
22	132	64	0
22	134	65	0
22	136	66	0
22	138	67	0
22	140	68	0
22	142	69	0
22	144	70	0
22	146	71	0
22	148	72	0
22	150	73	0
22	152	74	0
22	154	75	0
22	156	76	0
22	158	77	0
22	160	78	0
22	162	79	0
22	164	80	0
22	166	81	0
22	168	82	0
22	170	83	0
22	172	84	0
22	174	85	0
22	176	86	0
22	178	87	0
22	180	88	0
22	182	89	0
22	184	90	0
22	186	91	0
22	188	92	0
22	190	93	0
22	192	94	0
22	194	95	0
22	196	96	0
22	198	97	0
22	200	98	0
22	202	99	0
22	204	100	0
21	46	21	76.65
21	48	22	76.65
21	50	23	76.65
21	52	24	76.65
21	54	25	76.65
21	56	26	76.65
21	58	27	76.65
21	60	28	76.65
21	62	29	76.65
21	64	30	76.65
21	66	31	76.65
21	68	32	76.65
21	70	33	76.65
21	72	34	76.65
21	74	35	76.65
21	76	36	76.65
21	78	37	76.65
21	80	38	76.65
21	82	39	76.65
21	84	40	76.65
21	86	41	76.65
21	88	42	76.65
21	90	43	76.65
21	92	44	76.65
21	94	45	76.65
21	96	46	76.65
21	98	47	76.65
21	100	48	76.65
21	102	49	76.65
21	104	50	76.65
21	106	51	76.65
21	108	52	76.65
21	110	53	76.65
21	112	54	76.65
21	114	55	76.65
21	116	56	76.65
21	118	57	76.65
21	120	58	76.65
21	122	59	76.65
21	124	60	76.65
21	126	61	76.65
21	128	62	76.65
21	130	63	76.65
21	132	64	76.65
21	134	65	76.65
21	136	66	76.65
21	138	67	76.65
21	140	68	76.65
21	142	69	76.65
21	144	70	76.65
21	146	71	76.65
21	148	72	76.65
21	150	73	76.65
21	152	74	76.65
21	154	75	76.65
21	156	76	76.65
21	158	77	76.65
21	160	78	76.65
21	162	79	76.65
21	164	80	76.65
21	166	81	76.65
21	168	82	76.65
21	170	83	76.65
21	172	84	76.65
21	174	85	76.65
21	176	86	76.65
21	178	87	76.65
21	180	88	76.65
21	182	89	76.65
21	184	90	76.65
21	186	91	76.65
21	188	92	76.65
21	190	93	76.65
21	192	94	76.65
21	194	95	76.65
21	196	96	76.65
21	198	97	76.65
21	200	98	76.65
21	202	99	76.65
21	204	100	76.65
20	46	21	27.6
20	48	22	27.6
20	50	23	51.248041684041
20	52	24	74.595352238837
20	54	25	98.396690754641
20	56	26	121.6727655456
20	58	27	145.03924413063
20	60	28	168.83928184491
20	62	29	192.97550075383
20	64	30	216.19963898517
20	66	31	240.01510260003
20	68	32	263.63996663704
20	70	33	284.67452975748
20	72	34	296.56314586244
20	74	35	298.6417619674
20	76	36	299.00767733336
20	78	37	299.18035805298
20	80	38	299.2285586204
20	82	39	299.23894926073
20	84	40	299.24435160066
20	86	41	299.24483079365
20	88	42	299.24493544988
20	90	43	299.24493544988
20	92	44	299.24493544988
20	94	45	299.24493544988
20	96	46	299.24493544988
20	98	47	299.24493544988
20	100	48	299.24493544988
20	102	49	299.24493544988
20	104	50	299.24493544988
20	106	51	299.24493544988
20	108	52	299.24493544988
20	110	53	299.24493544988
20	112	54	299.24493544988
20	114	55	299.24493544988
20	116	56	299.24493544988
20	118	57	299.24493544988
20	120	58	299.24493544988
20	122	59	299.24493544988
20	124	60	299.24493544988
20	126	61	299.24493544988
20	128	62	299.24493544988
20	130	63	299.24493544988
20	132	64	299.24493544988
20	134	65	299.24493544988
20	136	66	299.24493544988
20	138	67	299.24493544988
20	140	68	299.24493544988
20	142	69	299.24493544988
20	144	70	299.24493544988
20	146	71	299.24493544988
20	148	72	299.24493544988
20	150	73	299.24493544988
20	152	74	299.24493544988
20	154	75	299.24493544988
20	156	76	299.24493544988
20	158	77	299.24493544988
20	160	78	299.24493544988
20	162	79	299.24493544988
20	164	80	299.24493544988
20	166	81	299.24493544988
20	168	82	299.24493544988
20	170	83	299.24493544988
20	172	84	299.24493544988
20	174	85	299.24493544988
20	176	86	299.24493544988
20	178	87	299.24493544988
20	180	88	299.24493544988
20	182	89	299.24493544988
20	184	90	299.24493544988
20	186	91	299.24493544988
20	188	92	299.24493544988
20	190	93	299.24493544988
20	192	94	299.24493544988
20	194	95	299.24493544988
20	196	96	299.24493544988
20	198	97	299.24493544988
20	200	98	299.24493544988
20	202	99	299.24493544988
20	204	100	299.24493544988
29	60	28	5.754529403278
29	62	29	4.9858038120998
29	64	30	1.031036190352
29	66	31	3.9208490831598
29	68	32	9.9739360157494
29	70	33	2.5921328459627
29	72	34	0.973
29	74	35	0.973
29	76	36	0.973
29	78	37	0.973
29	80	38	1.1160717983245
29	82	39	0.973
29	84	40	1.1122102762754
29	86	41	1.1100933981074
29	88	42	1.1100478395681
29	90	43	1.1100065165485
29	92	44	1.1100053383431
29	94	45	0.973
29	96	46	0.973
29	98	47	0.973
29	100	48	0.973
29	102	49	0.973
29	104	50	0.973
29	106	51	0.973
29	108	52	0.973
29	110	53	0.973
29	112	54	0.973
29	114	55	0.973
29	116	56	0.973
29	118	57	0.973
29	120	58	0.973
29	122	59	0.973
29	124	60	0.973
29	126	61	0.973
29	128	62	0.973
29	130	63	0.973
29	132	64	0.973
29	134	65	0.973
29	136	66	0.973
29	138	67	0.973
29	140	68	0.973
29	142	69	0.973
29	144	70	0.973
29	146	71	0.973
29	148	72	0.973
29	150	73	0.973
29	152	74	0.973
29	154	75	0.973
29	156	76	0.973
29	158	77	0.973
29	160	78	0.973
29	162	79	0.973
29	164	80	0.973
29	166	81	0.973
29	168	82	0.973
29	170	83	0.973
29	172	84	0.973
29	174	85	0.973
29	176	86	0.973
29	178	87	0.973
29	180	88	0.973
29	182	89	0.973
29	184	90	0.973
29	186	91	0.973
29	188	92	0.973
29	190	93	0.973
29	192	94	0.973
29	194	95	0.973
29	196	96	0.973
29	198	97	0.973
29	200	98	0.973
29	202	99	0.973
29	204	100	0.973
28	60	28	0.015538307838142
28	62	29	-0.081297066179104
28	64	30	-0.58373815915547
28	66	31	-0.19247061456554
28	68	32	0.58180507365614
28	70	33	-0.37649380008224
28	72	34	-7.5756423369796
28	74	35	-8.4491068971134
28	76	36	-8.2920774361961
28	78	37	-6.7008235647655
28	80	38	-0.037564259214721
28	82	39	-0.11016689238863
28	84	40	0.00085482533616055
28	86	41	-0.043155049369818
28	88	42	-0.0014692292861823
28	90	43	-0.00086336094423896
28	92	44	-2.4995187106354e-05
28	94	45	-0.00011067598976892
28	96	46	0
28	98	47	0
28	100	48	0
28	102	49	0
28	104	50	0
28	106	51	0
28	108	52	0
28	110	53	0
28	112	54	0
28	114	55	0
28	116	56	0
28	118	57	0
28	120	58	0
28	122	59	0
28	124	60	0
28	126	61	0
28	128	62	0
28	130	63	0
28	132	64	0
28	134	65	0
28	136	66	0
28	138	67	0
28	140	68	0
28	142	69	0
28	144	70	0
28	146	71	0
28	148	72	0
28	150	73	0
28	152	74	0
28	154	75	0
28	156	76	0
28	158	77	0
28	160	78	0
28	162	79	0
28	164	80	0
28	166	81	0
28	168	82	0
28	170	83	0
28	172	84	0
28	174	85	0
28	176	86	0
28	178	87	0
28	180	88	0
28	182	89	0
28	184	90	0
28	186	91	0
28	188	92	0
28	190	93	0
28	192	94	0
28	194	95	0
28	196	96	0
28	198	97	0
28	200	98	0
28	202	99	0
28	204	100	0
27	58	27	31.846806130587
27	60	28	31.862344438425
27	62	29	31.781047372246
27	64	30	31.197309213091
27	66	31	31.004838598525
27	68	32	31.586643672181
27	70	33	31.210149872099
27	72	34	23.634507535119
27	74	35	15.185400638006
27	76	36	6.8933232018098
27	78	37	0.19249963704431
27	80	38	0.15493537782958
27	82	39	0.044768485440954
27	84	40	0.045623310777114
27	86	41	0.0024682614072966
27	88	42	0.00099903212111423
27	90	43	0.00013567117687527
27	92	44	0.00011067598976892
27	94	45	0
27	96	46	0
27	98	47	0
27	100	48	0
27	102	49	0
27	104	50	0
27	106	51	0
27	108	52	0
27	110	53	0
27	112	54	0
27	114	55	0
27	116	56	0
27	118	57	0
27	120	58	0
27	122	59	0
27	124	60	0
27	126	61	0
27	128	62	0
27	130	63	0
27	132	64	0
27	134	65	0
27	136	66	0
27	138	67	0
27	140	68	0
27	142	69	0
27	144	70	0
27	146	71	0
27	148	72	0
27	150	73	0
27	152	74	0
27	154	75	0
27	156	76	0
27	158	77	0
27	160	78	0
27	162	79	0
27	164	80	0
27	166	81	0
27	168	82	0
27	170	83	0
27	172	84	0
27	174	85	0
27	176	86	0
27	178	87	0
27	180	88	0
27	182	89	0
27	184	90	0
27	186	91	0
27	188	92	0
27	190	93	0
27	192	94	0
27	194	95	0
27	196	96	0
27	198	97	0
27	200	98	0
27	202	99	0
27	204	100	0
26	56	26	76.65
26	58	27	76.65
26	60	28	76.65
26	62	29	76.65
26	64	30	76.65
26	66	31	76.65
26	68	32	76.65
26	70	33	76.65
26	72	34	76.65
26	74	35	76.65
26	76	36	76.65
26	78	37	76.65
26	80	38	76.65
26	82	39	76.65
26	84	40	76.65
26	86	41	76.65
26	88	42	76.65
26	90	43	76.65
26	92	44	76.65
26	94	45	76.65
26	96	46	76.65
26	98	47	76.65
26	100	48	76.65
26	102	49	76.65
26	104	50	76.65
26	106	51	76.65
26	108	52	76.65
26	110	53	76.65
26	112	54	76.65
26	114	55	76.65
26	116	56	76.65
26	118	57	76.65
26	120	58	76.65
26	122	59	76.65
26	124	60	76.65
26	126	61	76.65
26	128	62	76.65
26	130	63	76.65
26	132	64	76.65
26	134	65	76.65
26	136	66	76.65
26	138	67	76.65
26	140	68	76.65
26	142	69	76.65
26	144	70	76.65
26	146	71	76.65
26	148	72	76.65
26	150	73	76.65
26	152	74	76.65
26	154	75	76.65
26	156	76	76.65
26	158	77	76.65
26	160	78	76.65
26	162	79	76.65
26	164	80	76.65
26	166	81	76.65
26	168	82	76.65
26	170	83	76.65
26	172	84	76.65
26	174	85	76.65
26	176	86	76.65
26	178	87	76.65
26	180	88	76.65
26	182	89	76.65
26	184	90	76.65
26	186	91	76.65
26	188	92	76.65
26	190	93	76.65
26	192	94	76.65
26	194	95	76.65
26	196	96	76.65
26	198	97	76.65
26	200	98	76.65
26	202	99	76.65
26	204	100	76.65
25	56	26	27.6
25	58	27	27.6
25	60	28	59.446806130587
25	62	29	91.309150569012
25	64	30	123.09019794126
25	66	31	154.28750715435
25	68	32	185.29234575287
25	70	33	216.87898942505
25	72	34	248.08913929715
25	74	35	271.72364683227
25	76	36	286.90904747028
25	78	37	293.80237067209
25	80	38	293.99487030913
25	82	39	294.14980568696
25	84	40	294.1945741724
25	86	41	294.24019748318
25	88	42	294.24266574459
25	90	43	294.24366477671
25	92	44	294.24380044789
25	94	45	294.24391112388
25	96	46	294.24391112388
25	98	47	294.24391112388
25	100	48	294.24391112388
25	102	49	294.24391112388
25	104	50	294.24391112388
25	106	51	294.24391112388
25	108	52	294.24391112388
25	110	53	294.24391112388
25	112	54	294.24391112388
25	114	55	294.24391112388
25	116	56	294.24391112388
25	118	57	294.24391112388
25	120	58	294.24391112388
25	122	59	294.24391112388
25	124	60	294.24391112388
25	126	61	294.24391112388
25	128	62	294.24391112388
25	130	63	294.24391112388
25	132	64	294.24391112388
25	134	65	294.24391112388
25	136	66	294.24391112388
25	138	67	294.24391112388
25	140	68	294.24391112388
25	142	69	294.24391112388
25	144	70	294.24391112388
25	146	71	294.24391112388
25	148	72	294.24391112388
25	150	73	294.24391112388
25	152	74	294.24391112388
25	154	75	294.24391112388
25	156	76	294.24391112388
25	158	77	294.24391112388
25	160	78	294.24391112388
25	162	79	294.24391112388
25	164	80	294.24391112388
25	166	81	294.24391112388
25	168	82	294.24391112388
25	170	83	294.24391112388
25	172	84	294.24391112388
25	174	85	294.24391112388
25	176	86	294.24391112388
25	178	87	294.24391112388
25	180	88	294.24391112388
25	182	89	294.24391112388
25	184	90	294.24391112388
25	186	91	294.24391112388
25	188	92	294.24391112388
25	190	93	294.24391112388
25	192	94	294.24391112388
25	194	95	294.24391112388
25	196	96	294.24391112388
25	198	97	294.24391112388
25	200	98	294.24391112388
25	202	99	294.24391112388
25	204	100	294.24391112388
34	70	33	3.8659757209588
34	72	34	4.869130155239
34	74	35	6.6523318641192
34	76	36	4.0811594471718
34	78	37	4.973427140971
34	80	38	0.973
34	82	39	9.8094229342761
34	84	40	3.7178028998152
34	86	41	0.973
34	88	42	0.973
34	90	43	0.973
34	92	44	0.973
34	94	45	0.973
34	96	46	0.973
34	98	47	1.1100726455162
34	100	48	1.110055037338
34	102	49	1.110012370799
34	104	50	1.1100078383104
34	106	51	0.973
34	108	52	0.973
34	110	53	0.973
34	112	54	0.973
34	114	55	0.973
34	116	56	0.973
34	118	57	0.973
34	120	58	0.973
34	122	59	0.973
34	124	60	0.973
34	126	61	0.973
34	128	62	0.973
34	130	63	0.973
34	132	64	0.973
34	134	65	0.973
34	136	66	0.973
34	138	67	0.973
34	140	68	0.973
34	142	69	0.973
34	144	70	0.973
34	146	71	0.973
34	148	72	0.973
34	150	73	0.973
34	152	74	0.973
34	154	75	0.973
34	156	76	0.973
34	158	77	0.973
34	160	78	0.973
34	162	79	0.973
34	164	80	0.973
34	166	81	0.973
34	168	82	0.973
34	170	83	0.973
34	172	84	0.973
34	174	85	0.973
34	176	86	0.973
34	178	87	0.973
34	180	88	0.973
34	182	89	0.973
34	184	90	0.973
34	186	91	0.973
34	188	92	0.973
34	190	93	0.973
34	192	94	0.973
34	194	95	0.973
34	196	96	0.973
34	198	97	0.973
34	200	98	0.973
34	202	99	0.973
34	204	100	0.973
33	70	33	0.0067289869766682
33	72	34	0.16412850120105
33	74	35	0.43124269670807
33	76	36	0.018435291945934
33	78	37	0.15459434653167
33	80	38	-1.1266257794341
33	82	39	0.93837723357137
33	84	40	-0.037210209527984
33	86	41	-7.1162913234663
33	88	42	-8.3655491814713
33	90	43	-8.7279028514764
33	92	44	-1.366002769584
33	94	45	-0.13851319857979
33	96	46	-0.10439340851667
33	98	47	-0.015901459485678
33	100	48	-0.00049215600960409
33	102	49	-0.00088613569045126
33	104	50	-9.5020213062698e-05
33	106	51	-0.00016256287454056
33	108	52	0
33	110	53	0
33	112	54	0
33	114	55	0
33	116	56	0
33	118	57	0
33	120	58	0
33	122	59	0
33	124	60	0
33	126	61	0
33	128	62	0
33	130	63	0
33	132	64	0
33	134	65	0
33	136	66	0
33	138	67	0
33	140	68	0
33	142	69	0
33	144	70	0
33	146	71	0
33	148	72	0
33	150	73	0
33	152	74	0
33	154	75	0
33	156	76	0
33	158	77	0
33	160	78	0
33	162	79	0
33	164	80	0
33	166	81	0
33	168	82	0
33	170	83	0
33	172	84	0
33	174	85	0
33	176	86	0
33	178	87	0
33	180	88	0
33	182	89	0
33	184	90	0
33	186	91	0
33	188	92	0
33	190	93	0
33	192	94	0
33	194	95	0
33	196	96	0
33	198	97	0
33	200	98	0
33	202	99	0
33	204	100	0
32	68	32	25.286518999395
32	70	33	25.293247986372
32	72	34	25.457376487573
32	74	35	25.888619184281
32	76	36	25.907054476227
32	78	37	26.061648822758
32	80	38	24.935023043324
32	82	39	25.873400276896
32	84	40	25.836190067368
32	86	41	18.719898743902
32	88	42	10.35434956243
32	90	43	1.6264467109538
32	92	44	0.2604439413698
32	94	45	0.12193074279001
32	96	46	0.017537334273337
32	98	47	0.0016358747876586
32	100	48	0.0011437187780545
32	102	49	0.00025758308760326
32	104	50	0.00016256287454056
32	106	51	0
32	108	52	0
32	110	53	0
32	112	54	0
32	114	55	0
32	116	56	0
32	118	57	0
32	120	58	0
32	122	59	0
32	124	60	0
32	126	61	0
32	128	62	0
32	130	63	0
32	132	64	0
32	134	65	0
32	136	66	0
32	138	67	0
32	140	68	0
32	142	69	0
32	144	70	0
32	146	71	0
32	148	72	0
32	150	73	0
32	152	74	0
32	154	75	0
32	156	76	0
32	158	77	0
32	160	78	0
32	162	79	0
32	164	80	0
32	166	81	0
32	168	82	0
32	170	83	0
32	172	84	0
32	174	85	0
32	176	86	0
32	178	87	0
32	180	88	0
32	182	89	0
32	184	90	0
32	186	91	0
32	188	92	0
32	190	93	0
32	192	94	0
32	194	95	0
32	196	96	0
32	198	97	0
32	200	98	0
32	202	99	0
32	204	100	0
31	66	31	76.65
31	68	32	76.65
31	70	33	76.65
31	72	34	76.65
31	74	35	76.65
31	76	36	76.65
31	78	37	76.65
31	80	38	76.65
31	82	39	76.65
31	84	40	76.65
31	86	41	76.65
31	88	42	76.65
31	90	43	76.65
31	92	44	76.65
31	94	45	76.65
31	96	46	76.65
31	98	47	76.65
31	100	48	76.65
31	102	49	76.65
31	104	50	76.65
31	106	51	76.65
31	108	52	76.65
31	110	53	76.65
31	112	54	76.65
31	114	55	76.65
31	116	56	76.65
31	118	57	76.65
31	120	58	76.65
31	122	59	76.65
31	124	60	76.65
31	126	61	76.65
31	128	62	76.65
31	130	63	76.65
31	132	64	76.65
31	134	65	76.65
31	136	66	76.65
31	138	67	76.65
31	140	68	76.65
31	142	69	76.65
31	144	70	76.65
31	146	71	76.65
31	148	72	76.65
31	150	73	76.65
31	152	74	76.65
31	154	75	76.65
31	156	76	76.65
31	158	77	76.65
31	160	78	76.65
31	162	79	76.65
31	164	80	76.65
31	166	81	76.65
31	168	82	76.65
31	170	83	76.65
31	172	84	76.65
31	174	85	76.65
31	176	86	76.65
31	178	87	76.65
31	180	88	76.65
31	182	89	76.65
31	184	90	76.65
31	186	91	76.65
31	188	92	76.65
31	190	93	76.65
31	192	94	76.65
31	194	95	76.65
31	196	96	76.65
31	198	97	76.65
31	200	98	76.65
31	202	99	76.65
31	204	100	76.65
30	66	31	27.6
30	68	32	27.6
30	70	33	52.886518999395
30	72	34	78.179766985767
30	74	35	103.63714347334
30	76	36	129.52576265762
30	78	37	155.43281713385
30	80	38	181.49446595661
30	82	39	206.42948899993
30	84	40	232.30288927683
30	86	41	258.13907934419
30	88	42	276.8589780881
30	90	43	287.21332765053
30	92	44	288.83977436148
30	94	45	289.10021830285
30	96	46	289.22214904564
30	98	47	289.23968637991
30	100	48	289.2413222547
30	102	49	289.24246597348
30	104	50	289.24272355657
30	106	51	289.24288611944
30	108	52	289.24288611944
30	110	53	289.24288611944
30	112	54	289.24288611944
30	114	55	289.24288611944
30	116	56	289.24288611944
30	118	57	289.24288611944
30	120	58	289.24288611944
30	122	59	289.24288611944
30	124	60	289.24288611944
30	126	61	289.24288611944
30	128	62	289.24288611944
30	130	63	289.24288611944
30	132	64	289.24288611944
30	134	65	289.24288611944
30	136	66	289.24288611944
30	138	67	289.24288611944
30	140	68	289.24288611944
30	142	69	289.24288611944
30	144	70	289.24288611944
30	146	71	289.24288611944
30	148	72	289.24288611944
30	150	73	289.24288611944
30	152	74	289.24288611944
30	154	75	289.24288611944
30	156	76	289.24288611944
30	158	77	289.24288611944
30	160	78	289.24288611944
30	162	79	289.24288611944
30	164	80	289.24288611944
30	166	81	289.24288611944
30	168	82	289.24288611944
30	170	83	289.24288611944
30	172	84	289.24288611944
30	174	85	289.24288611944
30	176	86	289.24288611944
30	178	87	289.24288611944
30	180	88	289.24288611944
30	182	89	289.24288611944
30	184	90	289.24288611944
30	186	91	289.24288611944
30	188	92	289.24288611944
30	190	93	289.24288611944
30	192	94	289.24288611944
30	194	95	289.24288611944
30	196	96	289.24288611944
30	198	97	289.24288611944
30	200	98	289.24288611944
30	202	99	289.24288611944
30	204	100	289.24288611944
39	80	38	0.73712323631422
39	82	39	1.3896159070603
39	84	40	7.3173596862876
39	86	41	2.119478329721
39	88	42	1.9386744159695
39	90	43	4.8955871524551
39	92	44	3.3095543103842
39	94	45	0.973
39	96	46	1.9099105514865
39	98	47	4.5752731741043
39	100	48	0.973
39	102	49	0.973
39	104	50	0.973
39	106	51	0.973
39	108	52	1.1107142594534
39	110	53	1.1103005499476
39	112	54	1.1100983788885
39	114	55	1.110020592171
39	116	56	1.1100143159069
39	118	57	0.973
39	120	58	0.973
39	122	59	0.973
39	124	60	0.973
39	126	61	0.973
39	128	62	0.973
39	130	63	0.973
39	132	64	0.973
39	134	65	0.973
39	136	66	0.973
39	138	67	0.973
39	140	68	0.973
39	142	69	0.973
39	144	70	0.973
39	146	71	0.973
39	148	72	0.973
39	150	73	0.973
39	152	74	0.973
39	154	75	0.973
39	156	76	0.973
39	158	77	0.973
39	160	78	0.973
39	162	79	0.973
39	164	80	0.973
39	166	81	0.973
39	168	82	0.973
39	170	83	0.973
39	172	84	0.973
39	174	85	0.973
39	176	86	0.973
39	178	87	0.973
39	180	88	0.973
39	182	89	0.973
39	184	90	0.973
39	186	91	0.973
39	188	92	0.973
39	190	93	0.973
39	192	94	0.973
39	194	95	0.973
39	196	96	0.973
39	198	97	0.973
39	200	98	0.973
39	202	99	0.973
39	204	100	0.973
38	80	38	-0.43818811245728
38	82	39	-0.3013278124854
38	84	40	0.84511111630127
38	86	41	-0.16961397102568
38	88	42	-0.20055549102835
38	90	43	0.37030611606315
38	92	44	0.05726610228885
38	94	45	-0.57725403900258
38	96	46	-0.19808275694959
38	98	47	0.32660344499163
38	100	48	-2.4448193718874
38	102	49	-9.81
38	104	50	-8.0142401299451
38	106	51	-0.44435939695973
38	108	52	-0.041091249700738
38	110	53	-0.012003303542678
38	112	54	-0.0045410466513692
38	114	55	-0.0016562723247962
38	116	56	-0.00013346856282103
38	118	57	-0.0002969622503194
38	120	58	0
38	122	59	0
38	124	60	0
38	126	61	0
38	128	62	0
38	130	63	0
38	132	64	0
38	134	65	0
38	136	66	0
38	138	67	0
38	140	68	0
38	142	69	0
38	144	70	0
38	146	71	0
38	148	72	0
38	150	73	0
38	152	74	0
38	154	75	0
38	156	76	0
38	158	77	0
38	160	78	0
38	162	79	0
38	164	80	0
38	166	81	0
38	168	82	0
38	170	83	0
38	172	84	0
38	174	85	0
38	176	86	0
38	178	87	0
38	180	88	0
38	182	89	0
38	184	90	0
38	186	91	0
38	188	92	0
38	190	93	0
38	192	94	0
38	194	95	0
38	196	96	0
38	198	97	0
38	200	98	0
38	202	99	0
38	204	100	0
37	78	37	21.058876605129
37	80	38	20.620688492672
37	82	39	20.319360680186
37	84	40	21.164471796487
37	86	41	20.994857825462
37	88	42	20.794302334433
37	90	43	21.164608450497
37	92	44	21.221874552785
37	94	45	20.644620513783
37	96	46	20.446537756833
37	98	47	20.773141201825
37	100	48	18.328321829938
37	102	49	8.5183218299375
37	104	50	0.50408169999245
37	106	51	0.059722303032722
37	108	52	0.018631053331984
37	110	53	0.0066277497893058
37	112	54	0.0020867031379366
37	114	55	0.00043043081314043
37	116	56	0.0002969622503194
37	118	57	0
37	120	58	0
37	122	59	0
37	124	60	0
37	126	61	0
37	128	62	0
37	130	63	0
37	132	64	0
37	134	65	0
37	136	66	0
37	138	67	0
37	140	68	0
37	142	69	0
37	144	70	0
37	146	71	0
37	148	72	0
37	150	73	0
37	152	74	0
37	154	75	0
37	156	76	0
37	158	77	0
37	160	78	0
37	162	79	0
37	164	80	0
37	166	81	0
37	168	82	0
37	170	83	0
37	172	84	0
37	174	85	0
37	176	86	0
37	178	87	0
37	180	88	0
37	182	89	0
37	184	90	0
37	186	91	0
37	188	92	0
37	190	93	0
37	192	94	0
37	194	95	0
37	196	96	0
37	198	97	0
37	200	98	0
37	202	99	0
37	204	100	0
36	76	36	76.65
36	78	37	76.65
36	80	38	76.65
36	82	39	76.65
36	84	40	76.65
36	86	41	76.65
36	88	42	76.65
36	90	43	76.65
36	92	44	76.65
36	94	45	76.65
36	96	46	76.65
36	98	47	76.65
36	100	48	76.65
36	102	49	76.65
36	104	50	76.65
36	106	51	76.65
36	108	52	76.65
36	110	53	76.65
36	112	54	76.65
36	114	55	76.65
36	116	56	76.65
36	118	57	76.65
36	120	58	76.65
36	122	59	76.65
36	124	60	76.65
36	126	61	76.65
36	128	62	76.65
36	130	63	76.65
36	132	64	76.65
36	134	65	76.65
36	136	66	76.65
36	138	67	76.65
36	140	68	76.65
36	142	69	76.65
36	144	70	76.65
36	146	71	76.65
36	148	72	76.65
36	150	73	76.65
36	152	74	76.65
36	154	75	76.65
36	156	76	76.65
36	158	77	76.65
36	160	78	76.65
36	162	79	76.65
36	164	80	76.65
36	166	81	76.65
36	168	82	76.65
36	170	83	76.65
36	172	84	76.65
36	174	85	76.65
36	176	86	76.65
36	178	87	76.65
36	180	88	76.65
36	182	89	76.65
36	184	90	76.65
36	186	91	76.65
36	188	92	76.65
36	190	93	76.65
36	192	94	76.65
36	194	95	76.65
36	196	96	76.65
36	198	97	76.65
36	200	98	76.65
36	202	99	76.65
36	204	100	76.65
35	76	36	27.6
35	78	37	27.6
35	80	38	48.658876605129
35	82	39	69.2795650978
35	84	40	89.598925777987
35	86	41	110.76339757447
35	88	42	131.75825539994
35	90	43	152.55255773437
35	92	44	173.71716618487
35	94	45	194.93904073765
35	96	46	215.58366125143
35	98	47	236.03019900827
35	100	48	256.80334021009
35	102	49	275.13166204003
35	104	50	283.64998386997
35	106	51	284.15406556996
35	108	52	284.21378787299
35	110	53	284.23241892632
35	112	54	284.23904667611
35	114	55	284.24113337925
35	116	56	284.24156381006
35	118	57	284.24186077232
35	120	58	284.24186077232
35	122	59	284.24186077232
35	124	60	284.24186077232
35	126	61	284.24186077232
35	128	62	284.24186077232
35	130	63	284.24186077232
35	132	64	284.24186077232
35	134	65	284.24186077232
35	136	66	284.24186077232
35	138	67	284.24186077232
35	140	68	284.24186077232
35	142	69	284.24186077232
35	144	70	284.24186077232
35	146	71	284.24186077232
35	148	72	284.24186077232
35	150	73	284.24186077232
35	152	74	284.24186077232
35	154	75	284.24186077232
35	156	76	284.24186077232
35	158	77	284.24186077232
35	160	78	284.24186077232
35	162	79	284.24186077232
35	164	80	284.24186077232
35	166	81	284.24186077232
35	168	82	284.24186077232
35	170	83	284.24186077232
35	172	84	284.24186077232
35	174	85	284.24186077232
35	176	86	284.24186077232
35	178	87	284.24186077232
35	180	88	284.24186077232
35	182	89	284.24186077232
35	184	90	284.24186077232
35	186	91	284.24186077232
35	188	92	284.24186077232
35	190	93	284.24186077232
35	192	94	284.24186077232
35	194	95	284.24186077232
35	196	96	284.24186077232
35	198	97	284.24186077232
35	200	98	284.24186077232
35	202	99	284.24186077232
35	204	100	284.24186077232
44	90	43	6.1374001617388
44	92	44	3.6762054318944
44	94	45	6.0341875913163
44	96	46	2.6093679010173
44	98	47	0.973
44	100	48	9.0662131405596
44	102	49	0.973
44	104	50	0.973
44	106	51	0.973
44	108	52	0.973
44	110	53	0.973
44	112	54	0.973
44	114	55	1.1102516760197
44	116	56	1.1101193654927
44	118	57	1.110072152841
44	120	58	0.973
44	122	59	0.973
44	124	60	0.973
44	126	61	0.973
44	128	62	0.973
44	130	63	0.973
44	132	64	0.973
44	134	65	0.973
44	136	66	0.973
44	138	67	0.973
44	140	68	0.973
44	142	69	0.973
44	144	70	0.973
44	146	71	0.973
44	148	72	0.973
44	150	73	0.973
44	152	74	0.973
44	154	75	0.973
44	156	76	0.973
44	158	77	0.973
44	160	78	0.973
44	162	79	0.973
44	164	80	0.973
44	166	81	0.973
44	168	82	0.973
44	170	83	0.973
44	172	84	0.973
44	174	85	0.973
44	176	86	0.973
44	178	87	0.973
44	180	88	0.973
44	182	89	0.973
44	184	90	0.973
44	186	91	0.973
44	188	92	0.973
44	190	93	0.973
44	192	94	0.973
44	194	95	0.973
44	196	96	0.973
44	198	97	0.973
44	200	98	0.973
44	202	99	0.973
44	204	100	0.973
43	90	43	0.19699452503119
43	92	44	-0.14997472520918
43	94	45	0.1807910297066
43	96	46	-0.29991266538855
43	98	47	-0.92771272128448
43	100	48	0.65003760822583
43	102	49	-2.6784599071262
43	104	50	-8.8041988485516
43	106	51	-9.5035993270065
43	108	52	-6.9207405434643
43	110	53	-0.32848235051751
43	112	54	-0.1797892702133
43	114	55	-0.027696276726869
43	116	56	-0.0035360622759005
43	118	57	-0.001015574104516
43	120	58	-0.0015033330534892
43	122	59	0
43	124	60	0
43	126	61	0
43	128	62	0
43	130	63	0
43	132	64	0
43	134	65	0
43	136	66	0
43	138	67	0
43	140	68	0
43	142	69	0
43	144	70	0
43	146	71	0
43	148	72	0
43	150	73	0
43	152	74	0
43	154	75	0
43	156	76	0
43	158	77	0
43	160	78	0
43	162	79	0
43	164	80	0
43	166	81	0
43	168	82	0
43	170	83	0
43	172	84	0
43	174	85	0
43	176	86	0
43	178	87	0
43	180	88	0
43	182	89	0
43	184	90	0
43	186	91	0
43	188	92	0
43	190	93	0
43	192	94	0
43	194	95	0
43	196	96	0
43	198	97	0
43	200	98	0
43	202	99	0
43	204	100	0
42	88	42	28.798798441959
42	90	43	28.99579296699
42	92	44	28.845818241781
42	94	45	29.026609271487
42	96	46	28.726696606099
42	98	47	27.798983884814
42	100	48	28.44902149304
42	102	49	25.770561585914
42	104	50	16.966362737362
42	106	51	7.4627634103559
42	108	52	0.54202286689158
42	110	53	0.21354051637407
42	112	54	0.033751246160775
42	114	55	0.0060549694339057
42	116	56	0.0025189071580052
42	118	57	0.0015033330534892
42	120	58	0
42	122	59	0
42	124	60	0
42	126	61	0
42	128	62	0
42	130	63	0
42	132	64	0
42	134	65	0
42	136	66	0
42	138	67	0
42	140	68	0
42	142	69	0
42	144	70	0
42	146	71	0
42	148	72	0
42	150	73	0
42	152	74	0
42	154	75	0
42	156	76	0
42	158	77	0
42	160	78	0
42	162	79	0
42	164	80	0
42	166	81	0
42	168	82	0
42	170	83	0
42	172	84	0
42	174	85	0
42	176	86	0
42	178	87	0
42	180	88	0
42	182	89	0
42	184	90	0
42	186	91	0
42	188	92	0
42	190	93	0
42	192	94	0
42	194	95	0
42	196	96	0
42	198	97	0
42	200	98	0
42	202	99	0
42	204	100	0
41	86	41	76.65
41	88	42	76.65
41	90	43	76.65
41	92	44	76.65
41	94	45	76.65
41	96	46	76.65
41	98	47	76.65
41	100	48	76.65
41	102	49	76.65
41	104	50	76.65
41	106	51	76.65
41	108	52	76.65
41	110	53	76.65
41	112	54	76.65
41	114	55	76.65
41	116	56	76.65
41	118	57	76.65
41	120	58	76.65
41	122	59	76.65
41	124	60	76.65
41	126	61	76.65
41	128	62	76.65
41	130	63	76.65
41	132	64	76.65
41	134	65	76.65
41	136	66	76.65
41	138	67	76.65
41	140	68	76.65
41	142	69	76.65
41	144	70	76.65
41	146	71	76.65
41	148	72	76.65
41	150	73	76.65
41	152	74	76.65
41	154	75	76.65
41	156	76	76.65
41	158	77	76.65
41	160	78	76.65
41	162	79	76.65
41	164	80	76.65
41	166	81	76.65
41	168	82	76.65
41	170	83	76.65
41	172	84	76.65
41	174	85	76.65
41	176	86	76.65
41	178	87	76.65
41	180	88	76.65
41	182	89	76.65
41	184	90	76.65
41	186	91	76.65
41	188	92	76.65
41	190	93	76.65
41	192	94	76.65
41	194	95	76.65
41	196	96	76.65
41	198	97	76.65
41	200	98	76.65
41	202	99	76.65
41	204	100	76.65
40	86	41	27.6
40	88	42	27.6
40	90	43	56.398798441959
40	92	44	85.394591408949
40	94	45	114.24040965073
40	96	46	143.26701892222
40	98	47	171.99371552832
40	100	48	199.79269941313
40	102	49	228.24172090617
40	104	50	254.01228249208
40	106	51	270.97864522945
40	108	52	278.4414086398
40	110	53	278.98343150669
40	112	54	279.19697202307
40	114	55	279.23072326923
40	116	56	279.23677823866
40	118	57	279.23929714582
40	120	58	279.24080047887
40	122	59	279.24080047887
40	124	60	279.24080047887
40	126	61	279.24080047887
40	128	62	279.24080047887
40	130	63	279.24080047887
40	132	64	279.24080047887
40	134	65	279.24080047887
40	136	66	279.24080047887
40	138	67	279.24080047887
40	140	68	279.24080047887
40	142	69	279.24080047887
40	144	70	279.24080047887
40	146	71	279.24080047887
40	148	72	279.24080047887
40	150	73	279.24080047887
40	152	74	279.24080047887
40	154	75	279.24080047887
40	156	76	279.24080047887
40	158	77	279.24080047887
40	160	78	279.24080047887
40	162	79	279.24080047887
40	164	80	279.24080047887
40	166	81	279.24080047887
40	168	82	279.24080047887
40	170	83	279.24080047887
40	172	84	279.24080047887
40	174	85	279.24080047887
40	176	86	279.24080047887
40	178	87	279.24080047887
40	180	88	279.24080047887
40	182	89	279.24080047887
40	184	90	279.24080047887
40	186	91	279.24080047887
40	188	92	279.24080047887
40	190	93	279.24080047887
40	192	94	279.24080047887
40	194	95	279.24080047887
40	196	96	279.24080047887
40	198	97	279.24080047887
40	200	98	279.24080047887
40	202	99	279.24080047887
40	204	100	279.24080047887
49	100	48	2.9030584082569
49	102	49	15.328823635641
49	104	50	6.7314192349311
49	106	51	0.973
49	108	52	0.973
49	110	53	0.973
49	112	54	0.973
49	114	55	0.973
49	116	56	0.973
49	118	57	1.110654560725
49	120	58	1.110555040549
49	122	59	1.1100372337811
49	124	60	1.1100157081807
49	126	61	0.973
49	128	62	0.973
49	130	63	0.973
49	132	64	0.973
49	134	65	0.973
49	136	66	0.973
49	138	67	0.973
49	140	68	0.973
49	142	69	0.973
49	144	70	0.973
49	146	71	0.973
49	148	72	0.973
49	150	73	0.973
49	152	74	0.973
49	154	75	0.973
49	156	76	0.973
49	158	77	0.973
49	160	78	0.973
49	162	79	0.973
49	164	80	0.973
49	166	81	0.973
49	168	82	0.973
49	170	83	0.973
49	172	84	0.973
49	174	85	0.973
49	176	86	0.973
49	178	87	0.973
49	180	88	0.973
49	182	89	0.973
49	184	90	0.973
49	186	91	0.973
49	188	92	0.973
49	190	93	0.973
49	192	94	0.973
49	194	95	0.973
49	196	96	0.973
49	198	97	0.973
49	200	98	0.973
49	202	99	0.973
49	204	100	0.973
48	100	48	-0.42849456577096
48	102	49	1.0061981094768
48	104	50	-0.0088635730789974
48	106	51	-1.2469660477946
48	108	52	-2.3699018547669
48	110	53	-7.8599741497152
48	112	54	-9.81
48	114	55	-9.0785646141979
48	116	56	-4.6914953215342
48	118	57	-0.046985009878442
48	120	58	-0.0058769317059355
48	122	59	-0.011036957960204
48	124	60	-0.00049046143432434
48	126	61	-0.00032642546821044
48	128	62	0
48	130	63	0
48	132	64	0
48	134	65	0
48	136	66	0
48	138	67	0
48	140	68	0
48	142	69	0
48	144	70	0
48	146	71	0
48	148	72	0
48	150	73	0
48	152	74	0
48	154	75	0
48	156	76	0
48	158	77	0
48	160	78	0
48	162	79	0
48	164	80	0
48	166	81	0
48	168	82	0
48	170	83	0
48	172	84	0
48	174	85	0
48	176	86	0
48	178	87	0
48	180	88	0
48	182	89	0
48	184	90	0
48	186	91	0
48	188	92	0
48	190	93	0
48	192	94	0
48	194	95	0
48	196	96	0
48	198	97	0
48	200	98	0
48	202	99	0
48	204	100	0
47	98	47	34.552777803829
47	100	48	34.124283238058
47	102	49	35.130481347535
47	104	50	35.121617774456
47	106	51	33.874651726661
47	108	52	31.504749871894
47	110	53	23.644775722179
47	112	54	13.834775722179
47	114	55	4.7562111079813
47	116	56	0.064715786447117
47	118	57	0.017730776568675
47	120	58	0.011853844862739
47	122	59	0.00081688690253478
47	124	60	0.00032642546821044
47	126	61	0
47	128	62	0
47	130	63	0
47	132	64	0
47	134	65	0
47	136	66	0
47	138	67	0
47	140	68	0
47	142	69	0
47	144	70	0
47	146	71	0
47	148	72	0
47	150	73	0
47	152	74	0
47	154	75	0
47	156	76	0
47	158	77	0
47	160	78	0
47	162	79	0
47	164	80	0
47	166	81	0
47	168	82	0
47	170	83	0
47	172	84	0
47	174	85	0
47	176	86	0
47	178	87	0
47	180	88	0
47	182	89	0
47	184	90	0
47	186	91	0
47	188	92	0
47	190	93	0
47	192	94	0
47	194	95	0
47	196	96	0
47	198	97	0
47	200	98	0
47	202	99	0
47	204	100	0
46	96	46	76.65
46	98	47	76.65
46	100	48	76.65
46	102	49	76.65
46	104	50	76.65
46	106	51	76.65
46	108	52	76.65
46	110	53	76.65
46	112	54	76.65
46	114	55	76.65
46	116	56	76.65
46	118	57	76.65
46	120	58	76.65
46	122	59	76.65
46	124	60	76.65
46	126	61	76.65
46	128	62	76.65
46	130	63	76.65
46	132	64	76.65
46	134	65	76.65
46	136	66	76.65
46	138	67	76.65
46	140	68	76.65
46	142	69	76.65
46	144	70	76.65
46	146	71	76.65
46	148	72	76.65
46	150	73	76.65
46	152	74	76.65
46	154	75	76.65
46	156	76	76.65
46	158	77	76.65
46	160	78	76.65
46	162	79	76.65
46	164	80	76.65
46	166	81	76.65
46	168	82	76.65
46	170	83	76.65
46	172	84	76.65
46	174	85	76.65
46	176	86	76.65
46	178	87	76.65
46	180	88	76.65
46	182	89	76.65
46	184	90	76.65
46	186	91	76.65
46	188	92	76.65
46	190	93	76.65
46	192	94	76.65
46	194	95	76.65
46	196	96	76.65
46	198	97	76.65
46	200	98	76.65
46	202	99	76.65
46	204	100	76.65
45	96	46	27.6
45	98	47	27.6
45	100	48	62.152777803829
45	102	49	96.277061041887
45	104	50	131.40754238942
45	106	51	166.52916016388
45	108	52	200.40381189054
45	110	53	231.90856176243
45	112	54	255.55333748461
45	114	55	269.38811320679
45	116	56	274.14432431477
45	118	57	274.20904010122
45	120	58	274.22677087779
45	122	59	274.23862472265
45	124	60	274.23944160955
45	126	61	274.23976803502
45	128	62	274.23976803502
45	130	63	274.23976803502
45	132	64	274.23976803502
45	134	65	274.23976803502
45	136	66	274.23976803502
45	138	67	274.23976803502
45	140	68	274.23976803502
45	142	69	274.23976803502
45	144	70	274.23976803502
45	146	71	274.23976803502
45	148	72	274.23976803502
45	150	73	274.23976803502
45	152	74	274.23976803502
45	154	75	274.23976803502
45	156	76	274.23976803502
45	158	77	274.23976803502
45	160	78	274.23976803502
45	162	79	274.23976803502
45	164	80	274.23976803502
45	166	81	274.23976803502
45	168	82	274.23976803502
45	170	83	274.23976803502
45	172	84	274.23976803502
45	174	85	274.23976803502
45	176	86	274.23976803502
45	178	87	274.23976803502
45	180	88	274.23976803502
45	182	89	274.23976803502
45	184	90	274.23976803502
45	186	91	274.23976803502
45	188	92	274.23976803502
45	190	93	274.23976803502
45	192	94	274.23976803502
45	194	95	274.23976803502
45	196	96	274.23976803502
45	198	97	274.23976803502
45	200	98	274.23976803502
45	202	99	274.23976803502
45	204	100	274.23976803502

