version 2
run General-19-20200211-12:44:44-39082
attr configname General
attr datetime 20200211-12:44:44
attr experiment General
attr inifile omnetpp.ini
attr iterationvars $0=19
attr iterationvarsf 19-
attr measurement $0=19
attr network scenario
attr processid 39082
attr repetition 0
attr replication #0
attr resultdir veins-runall-output
attr runnumber 19
attr seedset 19
param *.playgroundSizeX 10672m
param *.playgroundSizeY 7105m
param *.playgroundSizeZ 10000m
param *.annotations.draw false
param *.world.useTorus false
param *.world.use2D false
param *.manager.updateInterval 1s
param *.manager.host "\"localhost\""
param *.manager.port 9999
param *.manager.moduleType "\"org.car2x.veins.nodes.Car\""
param *.manager.moduleName "\"node\""
param *.manager.moduleDisplayString "\"\""
param *.manager.autoShutdown true
param *.manager.margin 25
param *.manager.launchConfig "xmldoc(\"sumo-launchd.launch.xml\")"
param *.manager.trafficLightModuleType "\"org.car2x.veins.nodes.TrafficLight\""
param *.manager.trafficLightModuleName "\"trafficLight\""
param *.manager.trafficLightModuleDisplayString default
param *.manager.trafficLightFilter "\"10\""
param *.manager.ignoreGuiCommands true
param *.trafficLight[*].mobility.x 0
param *.trafficLight[*].mobility.y 0
param *.trafficLight[*].mobility.z 3
param *.trafficLight[*].applType "\"org.car2x.veins.subprojects.veins_testsims.traci.TraCITrafficLightApp\""
param *.trafficLight[*].logicType "\"org.car2x.veins.subprojects.veins_testsims.traci.TraCITrafficLightTestLogic\""
param *.trafficLight[*].appl.headerLength "80 bit"
param *.trafficLight[*].appl.sendBeacons false
param *.trafficLight[*].appl.dataOnSch true
param *.connectionManager.sendDirect true
param *.connectionManager.maxInterfDist 2600m
param *.connectionManager.drawMaxIntfDist false
param *.**.nic.mac1609_4.useServiceChannel false
param *.**.nic.mac1609_4.txPower 20mW
param *.**.nic.mac1609_4.bitrate 18Mbps
param *.**.nic.phy80211p.minPowerLevel -110dBm
param *.**.nic.phy80211p.useNoiseFloor true
param *.**.nic.phy80211p.noiseFloor -98dBm
param *.**.nic.phy80211p.decider "xmldoc(\"config.xml\")"
param *.**.nic.phy80211p.analogueModels "xmldoc(\"config.xml\")"
param *.**.nic.phy80211p.usePropagationDelay true
param *.node[*].applType "\"org.car2x.veins.subprojects.veins_testsims.traci.TraCITestApp\""
param *.node[0].appl.testNumber 19
param *.node[*].appl.testNumber -1
param *.node[*].veinsmobilityType "\"org.car2x.veins.modules.mobility.traci.TraCIMobility\""
param *.node[*].veinsmobility.x 0
param *.node[*].veinsmobility.y 0
param *.node[*].veinsmobility.z 1.895
param *.node[*].veinsmobility.accidentCount 0
param *.node[*].veinsmobility.setHostSpeed true

vector 0 scenario.node[0].veinsmobility posx ETV
vector 1 scenario.node[0].veinsmobility posy ETV
vector 2 scenario.node[0].veinsmobility speed ETV
vector 3 scenario.node[0].veinsmobility acceleration ETV
vector 4 scenario.node[0].veinsmobility co2emission ETV
vector 5 scenario.node[1].veinsmobility posx ETV
vector 6 scenario.node[1].veinsmobility posy ETV
vector 7 scenario.node[1].veinsmobility speed ETV
vector 8 scenario.node[1].veinsmobility acceleration ETV
vector 9 scenario.node[1].veinsmobility co2emission ETV
vector 10 scenario.node[2].veinsmobility posx ETV
vector 11 scenario.node[2].veinsmobility posy ETV
vector 12 scenario.node[2].veinsmobility speed ETV
vector 13 scenario.node[2].veinsmobility acceleration ETV
vector 14 scenario.node[2].veinsmobility co2emission ETV
vector 15 scenario.node[3].veinsmobility posx ETV
vector 16 scenario.node[3].veinsmobility posy ETV
vector 17 scenario.node[3].veinsmobility speed ETV
vector 18 scenario.node[3].veinsmobility acceleration ETV
vector 19 scenario.node[3].veinsmobility co2emission ETV
vector 20 scenario.node[4].veinsmobility posx ETV
vector 21 scenario.node[4].veinsmobility posy ETV
vector 22 scenario.node[4].veinsmobility speed ETV
vector 23 scenario.node[4].veinsmobility acceleration ETV
vector 24 scenario.node[4].veinsmobility co2emission ETV
vector 25 scenario.node[5].veinsmobility posx ETV
vector 26 scenario.node[5].veinsmobility posy ETV
vector 27 scenario.node[5].veinsmobility speed ETV
vector 28 scenario.node[5].veinsmobility acceleration ETV
vector 29 scenario.node[5].veinsmobility co2emission ETV
vector 30 scenario.node[6].veinsmobility posx ETV
vector 31 scenario.node[6].veinsmobility posy ETV
vector 32 scenario.node[6].veinsmobility speed ETV
vector 33 scenario.node[6].veinsmobility acceleration ETV
vector 34 scenario.node[6].veinsmobility co2emission ETV
vector 35 scenario.node[7].veinsmobility posx ETV
vector 36 scenario.node[7].veinsmobility posy ETV
vector 37 scenario.node[7].veinsmobility speed ETV
vector 38 scenario.node[7].veinsmobility acceleration ETV
vector 39 scenario.node[7].veinsmobility co2emission ETV
vector 40 scenario.node[8].veinsmobility posx ETV
vector 41 scenario.node[8].veinsmobility posy ETV
vector 42 scenario.node[8].veinsmobility speed ETV
vector 43 scenario.node[8].veinsmobility acceleration ETV
vector 44 scenario.node[8].veinsmobility co2emission ETV
vector 45 scenario.node[9].veinsmobility posx ETV
vector 46 scenario.node[9].veinsmobility posy ETV
vector 47 scenario.node[9].veinsmobility speed ETV
vector 48 scenario.node[9].veinsmobility acceleration ETV
vector 49 scenario.node[9].veinsmobility co2emission ETV
4	6	3	0.973
4	8	4	0.973
4	10	5	0.973
4	12	6	1.1223787104471
4	14	7	1.1141377873842
4	16	8	1.1223969614026
4	18	9	1.11498498928
4	20	10	1.1230457565159
4	22	11	1.1161562187848
4	24	12	1.1216984247948
4	26	13	1.1205123681899
4	28	14	1.1250667230423
4	30	15	1.1160302858547
4	32	16	1.1272349904038
4	34	17	1.1237209977741
4	36	18	1.1195024842387
4	38	19	1.1250893958473
4	40	20	1.1145676079161
4	42	21	1.1187031277018
4	44	22	1.119592769593
4	46	23	1.121486963075
4	48	24	1.1184734744088
4	50	25	1.1187216999653
4	52	26	1.116351322707
4	54	27	1.1177118985526
4	56	28	1.1162852692215
4	58	29	1.1302221004549
4	60	30	1.1207621881499
4	62	31	1.124099060347
4	64	32	1.1142617407858
4	66	33	1.1208340317318
4	68	34	1.1236111263158
4	70	35	1.1249246179148
4	72	36	1.1152686766704
4	74	37	1.1161307332385
4	76	38	1.1296035917403
4	78	39	1.1161946439474
4	80	40	1.1252675390312
4	82	41	1.125234251578
4	84	42	1.1149974806444
4	86	43	1.1196445013725
4	88	44	1.1149977314449
4	90	45	1.1203436061217
4	92	46	1.1155110949181
4	94	47	1.1276236843896
4	96	48	1.114660755188
4	98	49	1.1287733181742
4	100	50	1.1219527595848
4	102	51	0.973
4	104	52	1.1324957495503
4	106	53	1.1220076919885
4	108	54	0.973
4	110	55	1.1202775131241
4	112	56	1.1188087245683
4	114	57	1.1209601622903
4	116	58	1.1266382144513
4	118	59	0.973
4	120	60	1.1265934402569
4	122	61	1.1180650133611
4	124	62	1.1152103169081
4	126	63	1.121707978346
4	128	64	1.1202480835114
4	130	65	1.1146178134893
4	132	66	1.1213008891943
4	134	67	1.122674482664
4	136	68	1.1157247114343
4	138	69	1.1264845771521
4	140	70	1.1201101281699
4	142	71	1.1216674807895
4	144	72	1.1184884264943
4	146	73	1.1245658491633
4	148	74	1.1141471079472
4	150	75	1.1214042401929
4	152	76	1.1264279579743
4	154	77	1.1238371766435
4	156	78	1.1207945228868
4	158	79	1.1204442077121
4	160	80	1.120845571934
4	162	81	1.1138330288016
4	164	82	1.121249206246
4	166	83	1.1292746221414
4	168	84	1.117167046691
4	170	85	1.1182977787797
4	172	86	1.1165783116594
4	174	87	1.1186426604997
4	176	88	1.12808505659
4	178	89	1.1239539684449
4	180	90	1.1194747293936
4	182	91	1.115340689529
4	184	92	1.1224431453163
4	186	93	1.1251963271054
4	188	94	1.1227315054219
4	190	95	1.1146347106455
4	192	96	1.1211192234024
4	194	97	1.1251538681313
4	196	98	1.1169758731453
4	198	99	1.1159734571947
4	200	100	1.1285254042767
3	6	3	-9.81
3	8	4	-9.81
3	10	5	-1.3739755964378
3	12	6	0.023041359996164
3	14	7	-0.083252646727487
3	16	8	0.054852889540295
3	18	9	-0.057112029203886
3	20	10	0.061933547743441
3	22	11	-0.043489467643667
3	24	12	0.039497027755715
3	26	13	0.0075023282422788
3	28	14	0.044973788349631
3	30	15	-0.067050142905727
3	32	16	0.07341985603691
3	34	17	0.0097773325332027
3	36	18	-0.033954996971362
3	38	19	0.032212077251946
3	40	20	-0.092838337166338
3	42	21	0.0020263102811037
3	44	22	0.010414206287048
3	46	23	0.02379587835296
3	48	24	-0.018877102508365
3	50	25	-0.0067919193598856
3	52	26	-0.031185164989438
3	54	27	0.0021829526910248
3	56	28	-0.016298218462099
3	58	29	0.12012303176258
3	60	30	-0.017507866755801
3	62	31	0.020561214251858
3	64	32	-0.095720288194975
3	66	33	0.02785061250001
3	68	34	0.038990791298501
3	70	35	0.031338170326004
3	72	36	-0.082187897642143
3	74	37	-0.033059809615629
3	76	38	0.11000557243177
3	78	39	-0.067905918339319
3	80	40	0.054456816190699
3	82	41	0.02810475047833
3	84	42	-0.089510492592429
3	86	43	0.0063721819767832
3	88	44	-0.052918682890272
3	90	45	0.038782199747705
3	92	46	-0.038321868826946
3	94	47	0.10128162558734
3	96	48	-0.080700829275884
3	98	49	0.098728303370687
3	100	50	-0.0056522371920033
3	102	51	-0.11366361609867
3	104	52	0.13620019896836
3	106	53	-0.01230255471051
3	108	54	-0.11541490371908
3	110	55	0.033069079832381
3	112	56	-0.00012654908156642
3	114	57	0.021990335986225
3	116	58	0.060316352270699
3	118	59	-0.11341127398838
3	120	60	0.08762504278113
3	122	61	-0.035731546102195
3	124	62	-0.054789311187859
3	126	63	0.047465074910886
3	128	64	0.0080449426443213
3	130	65	-0.063756331510376
3	132	66	0.048274474813499
3	134	67	0.034939797640416
3	136	68	-0.057354604101015
3	138	69	0.078829121937613
3	140	70	-0.016618128348556
3	142	71	0.0061264739552927
3	144	72	-0.028954936812321
3	146	73	0.042913781233235
3	148	74	-0.090999247105275
3	150	75	0.039672952682142
3	152	76	0.062349494287951
3	154	77	0.011535740858461
3	156	78	-0.021088839922514
3	158	79	-0.015471161653598
3	160	80	-0.0045652959832094
3	162	81	-0.088115927840893
3	164	82	0.046946880918565
3	166	83	0.088322248872525
3	168	84	-0.061996138441221
3	170	85	-0.02198616877043
3	172	86	-0.03144655011258
3	174	87	0.0093676081936185
3	176	88	0.088655979456639
3	178	89	0.012467608515484
3	180	90	-0.034699327305942
3	182	91	-0.068837613734003
3	184	92	0.04331358980077
3	186	93	0.045061866823946
3	188	94	0.0029504047253997
3	190	95	-0.088244049822808
3	192	96	0.029269835924626
3	194	97	0.050122871535778
3	196	98	-0.053655635565519
3	198	99	-0.041419213585969
3	200	100	0.099967317882046
2	4	2	21.201030949273
2	6	3	11.391030949273
2	8	4	1.581030949273
2	10	5	0.20705535283519
2	12	6	0.23009671283136
2	14	7	0.14684406610387
2	16	8	0.20169695564416
2	18	9	0.14458492644028
2	20	10	0.20651847418372
2	22	11	0.16302900654005
2	24	12	0.20252603429577
2	26	13	0.21002836253804
2	28	14	0.25500215088768
2	30	15	0.18795200798195
2	32	16	0.26137186401886
2	34	17	0.27114919655206
2	36	18	0.2371941995807
2	38	19	0.26940627683265
2	40	20	0.17656793966631
2	42	21	0.17859424994741
2	44	22	0.18900845623446
2	46	23	0.21280433458742
2	48	24	0.19392723207905
2	50	25	0.18713531271917
2	52	26	0.15595014772973
2	54	27	0.15813310042075
2	56	28	0.14183488195866
2	58	29	0.26195791372124
2	60	30	0.24445004696544
2	62	31	0.2650112612173
2	64	32	0.16929097302232
2	66	33	0.19714158552233
2	68	34	0.23613237682083
2	70	35	0.26747054714684
2	72	36	0.18528264950469
2	74	37	0.15222283988906
2	76	38	0.26222841232084
2	78	39	0.19432249398152
2	80	40	0.24877931017222
2	82	41	0.27688406065055
2	84	42	0.18737356805812
2	86	43	0.1937457500349
2	88	44	0.14082706714463
2	90	45	0.17960926689233
2	92	46	0.14128739806539
2	94	47	0.24256902365273
2	96	48	0.16186819437684
2	98	49	0.26059649774753
2	100	50	0.25494426055553
2	102	51	0.14128064445686
2	104	52	0.27748084342521
2	106	53	0.2651782887147
2	108	54	0.14976338499562
2	110	55	0.182832464828
2	112	56	0.18270591574643
2	114	57	0.20469625173266
2	116	58	0.26501260400336
2	118	59	0.15160133001498
2	120	60	0.23922637279611
2	122	61	0.20349482669392
2	124	62	0.14870551550606
2	126	63	0.19617059041694
2	128	64	0.20421553306126
2	130	65	0.14045920155089
2	132	66	0.18873367636439
2	134	67	0.2236734740048
2	136	68	0.16631886990379
2	138	69	0.2451479918414
2	140	70	0.22852986349284
2	142	71	0.23465633744814
2	144	72	0.20570140063582
2	146	73	0.24861518186905
2	148	74	0.15761593476378
2	150	75	0.19728888744592
2	152	76	0.25963838173387
2	154	77	0.27117412259233
2	156	78	0.25008528266982
2	158	79	0.23461412101622
2	160	80	0.23004882503301
2	162	81	0.14193289719212
2	164	82	0.18887977811068
2	166	83	0.27720202698321
2	168	84	0.21520588854198
2	170	85	0.19321971977155
2	172	86	0.16177316965897
2	174	87	0.17114077785259
2	176	88	0.25979675730923
2	178	89	0.27226436582472
2	180	90	0.23756503851877
2	182	91	0.16872742478477
2	184	92	0.21204101458554
2	186	93	0.25710288140949
2	188	94	0.26005328613489
2	190	95	0.17180923631208
2	192	96	0.2010790722367
2	194	97	0.25120194377248
2	196	98	0.19754630820696
2	198	99	0.15612709462099
2	200	100	0.25609441250304
1	2	1	76.65
1	4	2	76.65
1	6	3	76.65
1	8	4	76.65
1	10	5	76.65
1	12	6	76.65
1	14	7	76.65
1	16	8	76.65
1	18	9	76.65
1	20	10	76.65
1	22	11	76.65
1	24	12	76.65
1	26	13	76.65
1	28	14	76.65
1	30	15	76.65
1	32	16	76.65
1	34	17	76.65
1	36	18	76.65
1	38	19	76.65
1	40	20	76.65
1	42	21	76.65
1	44	22	76.65
1	46	23	76.65
1	48	24	76.65
1	50	25	76.65
1	52	26	76.65
1	54	27	76.65
1	56	28	76.65
1	58	29	76.65
1	60	30	76.65
1	62	31	76.65
1	64	32	76.65
1	66	33	76.65
1	68	34	76.65
1	70	35	76.65
1	72	36	76.65
1	74	37	76.65
1	76	38	76.65
1	78	39	76.65
1	80	40	76.65
1	82	41	76.65
1	84	42	76.65
1	86	43	76.65
1	88	44	76.65
1	90	45	76.65
1	92	46	76.65
1	94	47	76.65
1	96	48	76.65
1	98	49	76.65
1	100	50	76.65
1	102	51	76.65
1	104	52	76.65
1	106	53	76.65
1	108	54	76.65
1	110	55	76.65
1	112	56	76.65
1	114	57	76.65
1	116	58	76.65
1	118	59	76.65
1	120	60	76.65
1	122	61	76.65
1	124	62	76.65
1	126	63	76.65
1	128	64	76.65
1	130	65	76.65
1	132	66	76.65
1	134	67	76.65
1	136	68	76.65
1	138	69	76.65
1	140	70	76.65
1	142	71	76.65
1	144	72	76.65
1	146	73	76.65
1	148	74	76.65
1	150	75	76.65
1	152	76	76.65
1	154	77	76.65
1	156	78	76.65
1	158	79	76.65
1	160	80	76.65
1	162	81	76.65
1	164	82	76.65
1	166	83	76.65
1	168	84	76.65
1	170	85	76.65
1	172	86	76.65
1	174	87	76.65
1	176	88	76.65
1	178	89	76.65
1	180	90	76.65
1	182	91	76.65
1	184	92	76.65
1	186	93	76.65
1	188	94	76.65
1	190	95	76.65
1	192	96	76.65
1	194	97	76.65
1	196	98	76.65
1	198	99	76.65
1	200	100	76.65
0	2	1	27.6
0	4	2	27.6
0	6	3	48.801030949273
0	8	4	60.192061898546
0	10	5	61.773092847819
0	12	6	61.980148200654
0	14	7	62.210244913485
0	16	8	62.357088979589
0	18	9	62.558785935233
0	20	10	62.703370861674
0	22	11	62.909889335857
0	24	12	63.072918342398
0	26	13	63.275444376693
0	28	14	63.485472739231
0	30	15	63.740474890119
0	32	16	63.928426898101
0	34	17	64.18979876212
0	36	18	64.460947958672
0	38	19	64.698142158253
0	40	20	64.967548435085
0	42	21	65.144116374752
0	44	22	65.322710624699
0	46	23	65.511719080933
0	48	24	65.724523415521
0	50	25	65.9184506476
0	52	26	66.105585960319
0	54	27	66.261536108049
0	56	28	66.41966920847
0	58	29	66.561504090428
0	60	30	66.823462004149
0	62	31	67.067912051115
0	64	32	67.332923312332
0	66	33	67.502214285354
0	68	34	67.699355870877
0	70	35	67.935488247698
0	72	36	68.202958794844
0	74	37	68.388241444349
0	76	38	68.540464284238
0	78	39	68.802692696559
0	80	40	68.997015190541
0	82	41	69.245794500713
0	84	42	69.522678561363
0	86	43	69.710052129421
0	88	44	69.903797879456
0	90	45	70.044624946601
0	92	46	70.224234213493
0	94	47	70.365521611559
0	96	48	70.608090635211
0	98	49	70.769958829588
0	100	50	71.030555327336
0	102	51	71.285499587891
0	104	52	71.426780232348
0	106	53	71.704261075773
0	108	54	71.969439364488
0	110	55	72.119202749484
0	112	56	72.302035214312
0	114	57	72.484741130058
0	116	58	72.689437381791
0	118	59	72.954449985794
0	120	60	73.106051315809
0	122	61	73.345277688605
0	124	62	73.548772515299
0	126	63	73.697478030805
0	128	64	73.893648621222
0	130	65	74.097864154283
0	132	66	74.238323355834
0	134	67	74.427057032199
0	136	68	74.650730506204
0	138	69	74.817049376107
0	140	70	75.062197367949
0	142	71	75.290727231442
0	144	72	75.52538356889
0	146	73	75.731084969526
0	148	74	75.979700151395
0	150	75	76.137316086158
0	152	76	76.334604973604
0	154	77	76.594243355338
0	156	78	76.86541747793
0	158	79	77.1155027606
0	160	80	77.350116881617
0	162	81	77.58016570665
0	164	82	77.722098603842
0	166	83	77.910978381952
0	168	84	78.188180408936
0	170	85	78.403386297477
0	172	86	78.596606017249
0	174	87	78.758379186908
0	176	88	78.929519964761
0	178	89	79.18931672207
0	180	90	79.461581087895
0	182	91	79.699146126413
0	184	92	79.867873551198
0	186	93	80.079914565784
0	188	94	80.337017447193
0	190	95	80.597070733328
0	192	96	80.76887996964
0	194	97	80.969959041877
0	196	98	81.221160985649
0	198	99	81.418707293856
0	200	100	81.574834388477
9	16	8	0.973
9	18	9	0.973
9	20	10	1.14654808638
9	22	11	0.973
9	24	12	1.1150294786794
9	26	13	1.1175717500286
9	28	14	1.1329161020843
9	30	15	1.1164415975193
9	32	16	1.1201557749921
9	34	17	1.1295593554679
9	36	18	1.1218108101685
9	38	19	1.116326093003
9	40	20	1.1354717749925
9	42	21	0.973
9	44	22	1.1151085432695
9	46	23	1.1246629550277
9	48	24	1.1144830605199
9	50	25	1.1222813120688
9	52	26	1.118255152525
9	54	27	1.1254911274845
9	56	28	0.973
9	58	29	1.1216309203295
9	60	30	1.1255376232058
9	62	31	1.1237471939597
9	64	32	1.116059668134
9	66	33	1.126831330979
9	68	34	1.1151023575731
9	70	35	1.1254168125935
9	72	36	1.1196647988882
9	74	37	1.1216922831425
9	76	38	1.1154087028961
9	78	39	1.1178833001741
9	80	40	1.1261495396764
9	82	41	1.1237655046326
9	84	42	1.1205327047966
9	86	43	1.1171256838813
9	88	44	1.1155389707276
9	90	45	1.1208991116084
9	92	46	1.1214151695659
9	94	47	1.1146217890389
9	96	48	1.1281752846668
9	98	49	1.1153479931791
9	100	50	1.1295093392886
9	102	51	1.1152056698336
9	104	52	1.1208218227298
9	106	53	1.1217235116537
9	108	54	1.1228320612071
9	110	55	0.973
9	112	56	1.1286525428357
9	114	57	1.113806889431
9	116	58	1.1231515784973
9	118	59	1.1301809863414
9	120	60	0.973
9	122	61	1.1169217849093
9	124	62	1.1251019975428
9	126	63	0.973
9	128	64	1.1303406567859
9	130	65	1.1154182988402
9	132	66	1.1158072692357
9	134	67	1.1152096289716
9	136	68	1.1244169828551
9	138	69	1.1158920251755
9	140	70	1.1247220799014
9	142	71	1.1373086603155
9	144	72	0.973
9	146	73	1.1357253464758
9	148	74	0.973
9	150	75	1.1285757650015
9	152	76	0.973
9	154	77	1.1444261154322
9	156	78	0.973
9	158	79	1.1176308826964
9	160	80	1.12113325005
9	162	81	1.1272049469371
9	164	82	1.1209097635147
9	166	83	0.973
9	168	84	1.1230937650157
9	170	85	1.1288198825138
9	172	86	1.1201694595592
9	174	87	1.1167380345843
9	176	88	1.1142636444667
9	178	89	1.124395700712
9	180	90	1.1404161416036
9	182	91	0.973
9	184	92	1.1175833455452
9	186	93	1.1271109485494
9	188	94	0.973
9	190	95	1.1252333384998
9	192	96	1.127110887271
9	194	97	0.973
9	196	98	1.1377446754512
9	198	99	0.973
9	200	100	1.1192806634168
8	16	8	-8.7138530798247
8	18	9	-9.3462478499108
8	20	10	0.023593854319857
8	22	11	-0.46404075966887
8	24	12	-0.062064950437115
8	26	13	0.0033007989473457
8	28	14	0.13190944532469
8	30	15	-0.074183612218271
8	32	16	-0.00079024926619597
8	34	17	0.079168619396146
8	36	18	-0.019417168180648
8	38	19	-0.069786842944256
8	40	20	0.12434677226179
8	42	21	-0.16291801194325
8	44	22	-0.034662795265088
8	46	23	0.085155065882396
8	48	24	-0.070155972530332
8	50	25	0.055915003263136
8	52	26	-0.014504368881447
8	54	27	0.061317849092745
8	56	28	-0.13213722592946
8	58	29	0.066981579260978
8	60	30	0.063683454772567
8	62	31	0.017592382334356
8	64	32	-0.069505298036477
8	66	33	0.067996672177096
8	68	34	-0.081706305815761
8	70	35	0.063704137477433
8	72	36	-0.01993048500214
8	74	37	0.0092116819230952
8	76	38	-0.065298364043797
8	78	39	-0.0016361842936042
8	80	40	0.076997001858581
8	82	41	0.018923286578438
8	84	42	-0.019200737947806
8	86	43	-0.047641940640611
8	88	44	-0.04536875042955
8	90	45	0.039904323020006
8	92	46	0.023440675801304
8	94	47	-0.067386975474413
8	96	48	0.103725372556
8	98	49	-0.073278674688452
8	100	50	0.097269363541667
8	102	51	-0.084848989330873
8	104	52	0.01826693289903
8	106	53	0.017701861113791
8	108	54	0.019313186201361
8	110	55	-0.11103594451302
8	112	56	0.11444903000431
8	114	57	-0.095326900938952
8	116	58	0.059492045770568
8	118	59	0.084243949937302
8	120	60	-0.11831911977821
8	122	61	-0.018224654884918
8	124	62	0.072202388072668
8	126	63	-0.10192963359002
8	128	64	0.12858735306788
8	130	65	-0.075861814751077
8	132	66	-0.034980556253388
8	134	67	-0.02350785787259
8	136	68	0.086388487669814
8	138	69	-0.048044473669191
8	140	70	0.067500541937409
8	142	71	0.12270297469423
8	144	72	-0.20163481624395
8	146	73	0.1529708554829
8	148	74	-0.15692436241314
8	150	75	0.10622619100347
8	152	76	-0.12379108917307
8	154	77	0.21570020940875
8	156	78	-0.13106238848411
8	158	79	-0.028238987764718
8	160	80	0.022913907241298
8	162	81	0.063579926223277
8	164	82	-0.019757601964403
8	166	83	-0.12228262839669
8	168	84	0.071426893556076
8	170	85	0.079332193042575
8	172	86	-0.030579249463439
8	174	87	-0.055518389567325
8	176	88	-0.063666597004607
8	178	89	0.082045742497815
8	180	90	0.14937171531638
8	182	91	-0.17339023201463
8	184	92	-0.016405422588411
8	186	93	0.081143914430267
8	188	94	-0.11079301605108
8	190	95	0.082235804325125
8	192	96	0.054715590942634
8	194	97	-0.13421701590932
8	196	98	0.16819060871796
8	198	99	-0.15378395013151
8	200	100	0.017882040400203
7	14	7	18.713718714499
7	16	8	9.9998656346747
7	18	9	0.65361778476383
7	20	10	0.67721163908369
7	22	11	0.21317087941482
7	24	12	0.1511059289777
7	26	13	0.15440672792505
7	28	14	0.28631617324974
7	30	15	0.21213256103146
7	32	16	0.21134231176527
7	34	17	0.29051093116141
7	36	18	0.27109376298077
7	38	19	0.20130692003651
7	40	20	0.32565369229831
7	42	21	0.16273568035506
7	44	22	0.12807288508997
7	46	23	0.21322795097237
7	48	24	0.14307197844204
7	50	25	0.19898698170517
7	52	26	0.18448261282372
7	54	27	0.24580046191647
7	56	28	0.11366323598701
7	58	29	0.18064481524799
7	60	30	0.24432827002055
7	62	31	0.26192065235491
7	64	32	0.19241535431843
7	66	33	0.26041202649553
7	68	34	0.17870572067977
7	70	35	0.2424098581572
7	72	36	0.22247937315506
7	74	37	0.23169105507815
7	76	38	0.16639269103436
7	78	39	0.16475650674075
7	80	40	0.24175350859933
7	82	41	0.26067679517777
7	84	42	0.24147605722997
7	86	43	0.19383411658935
7	88	44	0.1484653661598
7	90	45	0.18836968917981
7	92	46	0.21181036498111
7	94	47	0.1444233895067
7	96	48	0.2481487620627
7	98	49	0.17487008737425
7	100	50	0.27213945091592
7	102	51	0.18729046158505
7	104	52	0.20555739448408
7	106	53	0.22325925559787
7	108	54	0.24257244179923
7	110	55	0.13153649728621
7	112	56	0.24598552729052
7	114	57	0.15065862635156
7	116	58	0.21015067212213
7	118	59	0.29439462205943
7	120	60	0.17607550228122
7	122	61	0.1578508473963
7	124	62	0.23005323546897
7	126	63	0.12812360187895
7	128	64	0.25671095494683
7	130	65	0.18084914019575
7	132	66	0.14586858394237
7	134	67	0.12236072606978
7	136	68	0.20874921373959
7	138	69	0.1607047400704
7	140	70	0.22820528200781
7	142	71	0.35090825670203
7	144	72	0.14927344045808
7	146	73	0.30224429594098
7	148	74	0.14531993352784
7	150	75	0.25154612453131
7	152	76	0.12775503535824
7	154	77	0.34345524476699
7	156	78	0.21239285628287
7	158	79	0.18415386851816
7	160	80	0.20706777575945
7	162	81	0.27064770198273
7	164	82	0.25089010001833
7	166	83	0.12860747162164
7	168	84	0.20003436517772
7	170	85	0.27936655822029
7	172	86	0.24878730875685
7	174	87	0.19326891918953
7	176	88	0.12960232218492
7	178	89	0.21164806468274
7	180	90	0.36101977999911
7	182	91	0.18762954798448
7	184	92	0.17122412539607
7	186	93	0.25236803982634
7	188	94	0.14157502377526
7	190	95	0.22381082810038
7	192	96	0.27852641904301
7	194	97	0.1443094031337
7	196	98	0.31250001185165
7	198	99	0.15871606172014
7	200	100	0.17659810212035
6	12	6	76.65
6	14	7	76.65
6	16	8	76.65
6	18	9	76.65
6	20	10	76.65
6	22	11	76.65
6	24	12	76.65
6	26	13	76.65
6	28	14	76.65
6	30	15	76.65
6	32	16	76.65
6	34	17	76.65
6	36	18	76.65
6	38	19	76.65
6	40	20	76.65
6	42	21	76.65
6	44	22	76.65
6	46	23	76.65
6	48	24	76.65
6	50	25	76.65
6	52	26	76.65
6	54	27	76.65
6	56	28	76.65
6	58	29	76.65
6	60	30	76.65
6	62	31	76.65
6	64	32	76.65
6	66	33	76.65
6	68	34	76.65
6	70	35	76.65
6	72	36	76.65
6	74	37	76.65
6	76	38	76.65
6	78	39	76.65
6	80	40	76.65
6	82	41	76.65
6	84	42	76.65
6	86	43	76.65
6	88	44	76.65
6	90	45	76.65
6	92	46	76.65
6	94	47	76.65
6	96	48	76.65
6	98	49	76.65
6	100	50	76.65
6	102	51	76.65
6	104	52	76.65
6	106	53	76.65
6	108	54	76.65
6	110	55	76.65
6	112	56	76.65
6	114	57	76.65
6	116	58	76.65
6	118	59	76.65
6	120	60	76.65
6	122	61	76.65
6	124	62	76.65
6	126	63	76.65
6	128	64	76.65
6	130	65	76.65
6	132	66	76.65
6	134	67	76.65
6	136	68	76.65
6	138	69	76.65
6	140	70	76.65
6	142	71	76.65
6	144	72	76.65
6	146	73	76.65
6	148	74	76.65
6	150	75	76.65
6	152	76	76.65
6	154	77	76.65
6	156	78	76.65
6	158	79	76.65
6	160	80	76.65
6	162	81	76.65
6	164	82	76.65
6	166	83	76.65
6	168	84	76.65
6	170	85	76.65
6	172	86	76.65
6	174	87	76.65
6	176	88	76.65
6	178	89	76.65
6	180	90	76.65
6	182	91	76.65
6	184	92	76.65
6	186	93	76.65
6	188	94	76.65
6	190	95	76.65
6	192	96	76.65
6	194	97	76.65
6	196	98	76.65
6	198	99	76.65
6	200	100	76.65
5	12	6	27.6
5	14	7	27.6
5	16	8	46.313718714499
5	18	9	56.313584349174
5	20	10	56.967202133938
5	22	11	57.644413773022
5	24	12	57.857584652436
5	26	13	58.008690581414
5	28	14	58.163097309339
5	30	15	58.449413482589
5	32	16	58.66154604362
5	34	17	58.872888355386
5	36	18	59.163399286547
5	38	19	59.434493049528
5	40	20	59.635799969564
5	42	21	59.961453661863
5	44	22	60.124189342218
5	46	23	60.252262227308
5	48	24	60.46549017828
5	50	25	60.608562156722
5	52	26	60.807549138427
5	54	27	60.992031751251
5	56	28	61.237832213167
5	58	29	61.351495449154
5	60	30	61.532140264402
5	62	31	61.776468534423
5	64	32	62.038389186778
5	66	33	62.230804541096
5	68	34	62.491216567592
5	70	35	62.669922288272
5	72	36	62.912332146429
5	74	37	63.134811519584
5	76	38	63.366502574662
5	78	39	63.532895265696
5	80	40	63.697651772437
5	82	41	63.939405281036
5	84	42	64.200082076214
5	86	43	64.441558133444
5	88	44	64.635392250034
5	90	45	64.783857616193
5	92	46	64.972227305373
5	94	47	65.184037670354
5	96	48	65.328461059861
5	98	49	65.576609821924
5	100	50	65.751479909298
5	102	51	66.023619360214
5	104	52	66.210909821799
5	106	53	66.416467216283
5	108	54	66.639726471881
5	110	55	66.88229891368
5	112	56	67.013835410966
5	114	57	67.259820938257
5	116	58	67.410479564608
5	118	59	67.62063023673
5	120	60	67.91502485879
5	122	61	68.091100361071
5	124	62	68.248951208467
5	126	63	68.479004443936
5	128	64	68.607128045815
5	130	65	68.863839000762
5	132	66	69.044688140958
5	134	67	69.1905567249
5	136	68	69.31291745097
5	138	69	69.52166666471
5	140	70	69.68237140478
5	142	71	69.910576686788
5	144	72	70.26148494349
5	146	73	70.410758383948
5	148	74	70.713002679889
5	150	75	70.858322613417
5	152	76	71.109868737948
5	154	77	71.237623773306
5	156	78	71.581079018073
5	158	79	71.793471874356
5	160	80	71.977625742874
5	162	81	72.184693518634
5	164	82	72.455341220617
5	166	83	72.706231320635
5	168	84	72.834838792257
5	170	85	73.034873157434
5	172	86	73.314239715655
5	174	87	73.563027024411
5	176	88	73.756295943601
5	178	89	73.885898265786
5	180	90	74.097546330469
5	182	91	74.458566110468
5	184	92	74.646195658452
5	186	93	74.817419783848
5	188	94	75.069787823675
5	190	95	75.21136284745
5	192	96	75.43517367555
5	194	97	75.713700094593
5	196	98	75.858009497727
5	198	99	76.170509509579
5	200	100	76.329225571299
14	26	13	0.973
14	28	14	0.973
14	30	15	1.1356863660762
14	32	16	0.973
14	34	17	1.1254256590719
14	36	18	1.1237803134081
14	38	19	1.1179655267055
14	40	20	1.1227906335953
14	42	21	1.128573255634
14	44	22	0.973
14	46	23	1.1203024676137
14	48	24	1.1212966653084
14	50	25	1.1176042110214
14	52	26	1.1208853302752
14	54	27	0.973
14	56	28	1.141144453853
14	58	29	0.973
14	60	30	1.1189824428034
14	62	31	1.1208506082618
14	64	32	1.1205580447817
14	66	33	1.1380696843763
14	68	34	0.973
14	70	35	1.1202685766575
14	72	36	1.1240597469018
14	74	37	1.115118970553
14	76	38	1.12175345684
14	78	39	1.1194769381257
14	80	40	1.1140400724387
14	82	41	1.12620958262
14	84	42	1.1235498920491
14	86	43	1.1246324628599
14	88	44	1.1240539279773
14	90	45	0.973
14	92	46	1.1264062178591
14	94	47	1.1198214871292
14	96	48	1.117605554697
14	98	49	1.1219262811006
14	100	50	1.1153628893651
14	102	51	1.1238894172065
14	104	52	1.118034772187
14	106	53	1.1313249163063
14	108	54	0.973
14	110	55	1.1257870799585
14	112	56	1.1138405090938
14	114	57	1.1266609155358
14	116	58	1.1145202377115
14	118	59	1.1235352177991
14	120	60	1.1357452790099
14	122	61	0.973
14	124	62	1.1223368995777
14	126	63	1.1178202281656
14	128	64	1.1231510685468
14	130	65	1.1254302391447
14	132	66	1.1153973919863
14	134	67	0.973
14	136	68	1.1160825908145
14	138	69	1.1190931774737
14	140	70	1.119043143589
14	142	71	1.1355716944604
14	144	72	1.1304299034305
14	146	73	0.973
14	148	74	1.1330910689629
14	150	75	1.1165006916244
14	152	76	1.1179861262218
14	154	77	1.1237492820474
14	156	78	1.128207609526
14	158	79	1.1161059235669
14	160	80	1.1236128753422
14	162	81	0.973
14	164	82	1.137537793456
14	166	83	1.1188651762891
14	168	84	0.973
14	170	85	1.1233555968445
14	172	86	1.1266054515951
14	174	87	1.1223536627815
14	176	88	0.973
14	178	89	1.1165920850341
14	180	90	1.11918857027
14	182	91	1.1267457359422
14	184	92	1.1184437948071
14	186	93	1.1313920927807
14	188	94	1.1183278720995
14	190	95	0.973
14	192	96	1.1349861146668
14	194	97	1.1222481483798
14	196	98	0.973
14	198	99	1.1518713057551
14	200	100	0.973
13	26	13	-7.5489658580788
13	28	14	-8.5181137142642
13	30	15	0.088572955004802
13	32	16	-0.1851674257169
13	34	17	0.061084124256141
13	36	18	0.017582573760205
13	38	19	-0.046915498086487
13	40	20	0.022588012323961
13	42	21	0.059043061732213
13	44	22	-0.12568187766756
13	46	23	0.021362603816167
13	48	24	0.019962971673038
13	50	25	-0.028805626388572
13	52	26	0.020528342233894
13	54	27	-0.10332738352781
13	56	28	0.21210929228889
13	58	29	-0.19887092691645
13	60	30	0.04038206361104
13	62	31	0.035830098303429
13	64	32	0.013884413177474
13	66	33	0.13885471477835
13	68	34	-0.14037748095871
13	70	35	0.0047664746782231
13	72	36	0.037523003521611
13	74	37	-0.075311845482251
13	76	38	0.036204590539787
13	78	39	-0.0049219661790927
13	80	40	-0.071304945045445
13	82	41	0.096566936081537
13	84	42	0.02406284942058
13	86	43	0.022241913134596
13	88	44	0.0076335020949342
13	90	45	-0.19633818529379
13	92	46	0.12505669674985
13	94	47	-0.0028202894080358
13	96	48	-0.025659052277995
13	98	49	0.032159724445936
13	100	50	-0.057271632376688
13	102	51	0.063143790684787
13	104	52	-0.026691603709249
13	106	53	0.10130705583268
13	108	54	-0.14103298443899
13	110	55	0.080737811771557
13	112	56	-0.0893668744759
13	114	57	0.092435698755644
13	116	58	-0.080077133169205
13	118	59	0.059827450370153
13	120	60	0.11883416055494
13	122	61	-0.19908509926894
13	124	62	0.060569617305591
13	126	63	-0.018102354756532
13	128	64	0.044656413113908
13	130	65	0.041754049294937
13	132	66	-0.079321091622521
13	134	67	-0.10124313145988
13	136	68	0.027025290688985
13	138	69	0.043654458724131
13	140	70	0.017576733909762
13	142	71	0.13977658615995
13	144	72	0.040325604888107
13	146	73	-0.23959275365516
13	148	74	0.15609303908362
13	150	75	-0.066757154642858
13	152	76	-0.019132477805665
13	154	77	0.047397707670098
13	156	78	0.059964897030692
13	158	79	-0.079849377603955
13	160	80	0.032354659293726
13	162	81	-0.10494719014373
13	164	82	0.17038244410546
13	166	83	-0.054992611862443
13	168	84	-0.1027344101052
13	170	85	0.061314245383812
13	172	86	0.056499491327013
13	174	87	-0.005345110359978
13	176	88	-0.13530840303069
13	178	89	0.0053322698129437
13	180	90	0.031481192562823
13	182	91	0.08181340360257
13	184	92	-0.034688499822473
13	186	93	0.092033683776165
13	188	94	-0.058998159283626
13	190	95	-0.11540952050949
13	192	96	0.15916669663172
13	194	97	-0.014626721207402
13	196	98	-0.17908303305396
13	198	99	0.27263695169548
13	200	100	-0.24684075477192
12	24	12	16.347570680621
12	26	13	8.798604822542
12	28	14	0.28049110827784
12	30	15	0.36906406328264
12	32	16	0.18389663756574
12	34	17	0.24498076182188
12	36	18	0.26256333558208
12	38	19	0.2156478374956
12	40	20	0.23823584981956
12	42	21	0.29727891155177
12	44	22	0.17159703388421
12	46	23	0.19295963770038
12	48	24	0.21292260937342
12	50	25	0.18411698298485
12	52	26	0.20464532521874
12	54	27	0.10131794169094
12	56	28	0.31342723397983
12	58	29	0.11455630706338
12	60	30	0.15493837067442
12	62	31	0.19076846897785
12	64	32	0.20465288215533
12	66	33	0.34350759693368
12	68	34	0.20313011597497
12	70	35	0.20789659065319
12	72	36	0.2454195941748
12	74	37	0.17010774869255
12	76	38	0.20631233923234
12	78	39	0.20139037305324
12	80	40	0.1300854280078
12	82	41	0.22665236408934
12	84	42	0.25071521350992
12	86	43	0.27295712664451
12	88	44	0.28059062873945
12	90	45	0.084252443445652
12	92	46	0.20930914019551
12	94	47	0.20648885078747
12	96	48	0.18082979850947
12	98	49	0.21298952295541
12	100	50	0.15571789057872
12	102	51	0.21886168126351
12	104	52	0.19217007755426
12	106	53	0.29347713338694
12	108	54	0.15244414894796
12	110	55	0.23318196071951
12	112	56	0.14381508624361
12	114	57	0.23625078499926
12	116	58	0.15617365183005
12	118	59	0.21600110220021
12	120	60	0.33483526275514
12	122	61	0.1357501634862
12	124	62	0.19631978079179
12	126	63	0.17821742603526
12	128	64	0.22287383914916
12	130	65	0.2646278884441
12	132	66	0.18530679682158
12	134	67	0.0840636653617
12	136	68	0.11108895605068
12	138	69	0.15474341477482
12	140	70	0.17232014868458
12	142	71	0.31209673484453
12	144	72	0.35242233973264
12	146	73	0.11282958607748
12	148	74	0.26892262516109
12	150	75	0.20216547051823
12	152	76	0.18303299271257
12	154	77	0.23043070038267
12	156	78	0.29039559741336
12	158	79	0.2105462198094
12	160	80	0.24290087910313
12	162	81	0.1379536889594
12	164	82	0.30833613306486
12	166	83	0.25334352120242
12	168	84	0.15060911109722
12	170	85	0.21192335648103
12	172	86	0.26842284780804
12	174	87	0.26307773744807
12	176	88	0.12776933441738
12	178	89	0.13310160423032
12	180	90	0.16458279679314
12	182	91	0.24639620039571
12	184	92	0.21170770057324
12	186	93	0.30374138434941
12	188	94	0.24474322506578
12	190	95	0.12933370455629
12	192	96	0.28850040118801
12	194	97	0.27387367998061
12	196	98	0.094790646926655
12	198	99	0.36742759862214
12	200	100	0.12058684385022
11	22	11	76.65
11	24	12	76.65
11	26	13	76.65
11	28	14	76.65
11	30	15	76.65
11	32	16	76.65
11	34	17	76.65
11	36	18	76.65
11	38	19	76.65
11	40	20	76.65
11	42	21	76.65
11	44	22	76.65
11	46	23	76.65
11	48	24	76.65
11	50	25	76.65
11	52	26	76.65
11	54	27	76.65
11	56	28	76.65
11	58	29	76.65
11	60	30	76.65
11	62	31	76.65
11	64	32	76.65
11	66	33	76.65
11	68	34	76.65
11	70	35	76.65
11	72	36	76.65
11	74	37	76.65
11	76	38	76.65
11	78	39	76.65
11	80	40	76.65
11	82	41	76.65
11	84	42	76.65
11	86	43	76.65
11	88	44	76.65
11	90	45	76.65
11	92	46	76.65
11	94	47	76.65
11	96	48	76.65
11	98	49	76.65
11	100	50	76.65
11	102	51	76.65
11	104	52	76.65
11	106	53	76.65
11	108	54	76.65
11	110	55	76.65
11	112	56	76.65
11	114	57	76.65
11	116	58	76.65
11	118	59	76.65
11	120	60	76.65
11	122	61	76.65
11	124	62	76.65
11	126	63	76.65
11	128	64	76.65
11	130	65	76.65
11	132	66	76.65
11	134	67	76.65
11	136	68	76.65
11	138	69	76.65
11	140	70	76.65
11	142	71	76.65
11	144	72	76.65
11	146	73	76.65
11	148	74	76.65
11	150	75	76.65
11	152	76	76.65
11	154	77	76.65
11	156	78	76.65
11	158	79	76.65
11	160	80	76.65
11	162	81	76.65
11	164	82	76.65
11	166	83	76.65
11	168	84	76.65
11	170	85	76.65
11	172	86	76.65
11	174	87	76.65
11	176	88	76.65
11	178	89	76.65
11	180	90	76.65
11	182	91	76.65
11	184	92	76.65
11	186	93	76.65
11	188	94	76.65
11	190	95	76.65
11	192	96	76.65
11	194	97	76.65
11	196	98	76.65
11	198	99	76.65
11	200	100	76.65
10	22	11	27.6
10	24	12	27.6
10	26	13	43.947570680621
10	28	14	52.746175503163
10	30	15	53.026666611441
10	32	16	53.395730674723
10	34	17	53.579627312289
10	36	18	53.824608074111
10	38	19	54.087171409693
10	40	20	54.302819247189
10	42	21	54.541055097008
10	44	22	54.83833400856
10	46	23	55.009931042444
10	48	24	55.202890680145
10	50	25	55.415813289518
10	52	26	55.599930272503
10	54	27	55.804575597722
10	56	28	55.905893539413
10	58	29	56.219320773392
10	60	30	56.333877080456
10	62	31	56.48881545113
10	64	32	56.679583920108
10	66	33	56.884236802263
10	68	34	57.227744399197
10	70	35	57.430874515172
10	72	36	57.638771105825
10	74	37	57.8841907
10	76	38	58.054298448693
10	78	39	58.260610787925
10	80	40	58.462001160978
10	82	41	58.592086588986
10	84	42	58.818738953075
10	86	43	59.069454166585
10	88	44	59.34241129323
10	90	45	59.623001921969
10	92	46	59.707254365415
10	94	47	59.91656350561
10	96	48	60.123052356398
10	98	49	60.303882154907
10	100	50	60.516871677863
10	102	51	60.672589568441
10	104	52	60.891451249705
10	106	53	61.083621327259
10	108	54	61.377098460646
10	110	55	61.529542609594
10	112	56	61.762724570314
10	114	57	61.906539656557
10	116	58	62.142790441556
10	118	59	62.298964093386
10	120	60	62.514965195587
10	122	61	62.849800458342
10	124	62	62.985550621828
10	126	63	63.18187040262
10	128	64	63.360087828655
10	130	65	63.582961667804
10	132	66	63.847589556248
10	134	67	64.03289635307
10	136	68	64.116960018432
10	138	69	64.228048974482
10	140	70	64.382792389257
10	142	71	64.555112537942
10	144	72	64.867209272786
10	146	73	65.219631612519
10	148	74	65.332461198596
10	150	75	65.601383823757
10	152	76	65.803549294276
10	154	77	65.986582286988
10	156	78	66.217012987371
10	158	79	66.507408584784
10	160	80	66.717954804594
10	162	81	66.960855683697
10	164	82	67.098809372656
10	166	83	67.407145505721
10	168	84	67.660489026923
10	170	85	67.811098138021
10	172	86	68.023021494502
10	174	87	68.29144434231
10	176	88	68.554522079758
10	178	89	68.682291414175
10	180	90	68.815393018405
10	182	91	68.979975815199
10	184	92	69.226372015594
10	186	93	69.438079716168
10	188	94	69.741821100517
10	190	95	69.986564325583
10	192	96	70.115898030139
10	194	97	70.404398431327
10	196	98	70.678272111308
10	198	99	70.773062758234
10	200	100	71.140490356856
19	36	18	0.973
19	38	19	0.973
19	40	20	0.973
19	42	21	0.973
19	44	22	1.1174178157099
19	46	23	1.1224810158274
19	48	24	1.1213296549787
19	50	25	1.1157211569469
19	52	26	1.1145653442148
19	54	27	1.1211202694019
19	56	28	1.1149742313188
19	58	29	1.1254410581463
19	60	30	1.1227418502948
19	62	31	1.1173719541508
19	64	32	1.1199522649891
19	66	33	1.1181103290386
19	68	34	1.1334942555988
19	70	35	1.1179278751971
19	72	36	1.1135951664193
19	74	37	1.1218727133002
19	76	38	1.1339419138558
19	78	39	0.973
19	80	40	1.1240842021213
19	82	41	0.973
19	84	42	1.1180795705186
19	86	43	1.1409506743608
19	88	44	0.973
19	90	45	1.1237928807021
19	92	46	1.1164524117057
19	94	47	1.1222321596759
19	96	48	1.1178107765707
19	98	49	1.1161786636024
19	100	50	1.1387694101171
19	102	51	0.973
19	104	52	1.1168778421218
19	106	53	1.1264847741927
19	108	54	1.1298244403711
19	110	55	0.973
19	112	56	1.1156010415922
19	114	57	1.1269860326159
19	116	58	1.1144179722375
19	118	59	1.1199975134724
19	120	60	1.1261211161252
19	122	61	1.1293335675699
19	124	62	0.973
19	126	63	1.1217200357045
19	128	64	1.1223653772229
19	130	65	1.1208100450379
19	132	66	1.1163894682953
19	134	67	1.1230881719901
19	136	68	1.1135509988478
19	138	69	1.1136243863197
19	140	70	1.1161600456574
19	142	71	1.1189607122771
19	144	72	1.1468507049318
19	146	73	1.1274964433927
19	148	74	0.973
19	150	75	1.1226952600267
19	152	76	1.1166056993851
19	154	77	1.1249261098339
19	156	78	1.1192171321486
19	158	79	1.1248638941916
19	160	80	1.1151923385327
19	162	81	1.1345091700721
19	164	82	0.973
19	166	83	1.1206271090003
19	168	84	1.1267334880992
19	170	85	1.1158702000832
19	172	86	1.1303189754228
19	174	87	1.1190434571677
19	176	88	1.1216926109027
19	178	89	1.1136549773376
19	180	90	1.1194996156721
19	182	91	1.1190363246766
19	184	92	1.125402910507
19	186	93	1.1167170758882
19	188	94	1.1329956333742
19	190	95	0.973
19	192	96	1.1136635439345
19	194	97	1.1475830080611
19	196	98	0.973
19	198	99	1.1222594131094
19	200	100	1.1355052905625
18	36	18	-9.81
18	38	19	-4.4364477927935
18	40	20	-0.43216323040249
18	42	21	-0.17851843387272
18	44	22	-0.047398534206648
18	46	23	0.026749799413373
18	48	24	0.0030754240796165
18	50	25	-0.0608716053207
18	52	26	-0.046854756696375
18	54	27	0.056329483847476
18	56	28	-0.046005678259888
18	58	29	0.08825121400172
18	60	30	0.019038066214446
18	62	31	-0.044581391162659
18	64	32	0.0048364752396644
18	66	33	-0.017353769203012
18	68	34	0.12019625735906
18	70	35	-0.063537872089706
18	72	36	-0.096641771258602
18	74	37	0.051586621290463
18	76	38	0.11725815533529
18	78	39	-0.13752631081422
18	80	40	0.054266218880817
18	82	41	-0.13167385838355
18	84	42	0.041006478853349
18	86	43	0.19006374511839
18	88	44	-0.13642608557623
18	90	45	0.042846664336571
18	92	46	-0.053258155398193
18	94	47	0.034261826736353
18	96	48	-0.028124172397947
18	98	49	-0.03404566242224
18	100	50	0.16900333098279
18	102	51	-0.19673582128412
18	104	52	0.0095122332426276
18	106	53	0.095347706242759
18	108	54	0.071407902292881
18	110	55	-0.12952440351034
18	112	56	-0.033714775654521
18	114	57	0.097301772038537
18	116	58	-0.081912098145345
18	118	59	0.027329417249416
18	120	60	0.067525878146289
18	122	61	0.059288301519037
18	124	62	-0.15872900617309
18	126	63	0.046620772188933
18	128	64	0.027904670159771
18	130	65	-0.0004156108835241
18	132	66	-0.049074779490644
18	134	67	0.045546340563392
18	136	68	-0.088757231458049
18	138	69	-0.038959591682308
18	140	70	0.021841915506066
18	142	71	0.03980512129665
18	144	72	0.21411215955648
18	146	73	-0.0022758644650953
18	148	74	-0.21789888199762
18	150	75	0.056417669694542
18	152	76	-0.037155501142771
18	154	77	0.065220254684196
18	156	78	-0.020502878932533
18	158	79	0.041905553639894
18	160	80	-0.078170398819001
18	162	81	0.13072473151622
18	164	82	-0.14285395701252
18	166	83	0.028429318488261
18	168	84	0.066988197638621
18	170	85	-0.071129574169142
18	172	86	0.095948682686492
18	174	87	-0.044173760281025
18	176	88	0.0008325157076064
18	178	89	-0.095904559970396
18	180	90	0.027602167593973
18	182	91	0.0074963080038705
18	184	92	0.062631898022251
18	186	93	-0.053352668929481
18	188	94	0.11392695036714
18	190	95	-0.11775194902974
18	192	96	-0.069588900290758
18	194	97	0.23880333292762
18	196	98	-0.19144244473382
18	198	99	0.044296867548745
18	200	100	0.12120168170878
17	34	17	15.105985736825
17	36	18	5.2959857368253
17	38	19	0.85953794403175
17	40	20	0.42737471362926
17	42	21	0.24885627975653
17	44	22	0.20145774554989
17	46	23	0.22820754496326
17	48	24	0.23128296904288
17	50	25	0.17041136372218
17	52	26	0.1235566070258
17	54	27	0.17988609087328
17	56	28	0.13388041261339
17	58	29	0.22213162661511
17	60	30	0.24116969282955
17	62	31	0.1965883016669
17	64	32	0.20142477690656
17	66	33	0.18407100770355
17	68	34	0.30426726506261
17	70	35	0.24072939297291
17	72	36	0.1440876217143
17	74	37	0.19567424300477
17	76	38	0.31293239834006
17	78	39	0.17540608752584
17	80	40	0.22967230640665
17	82	41	0.097998448023103
17	84	42	0.13900492687645
17	86	43	0.32906867199485
17	88	44	0.19264258641862
17	90	45	0.23548925075519
17	92	46	0.18223109535699
17	94	47	0.21649292209335
17	96	48	0.1883687496954
17	98	49	0.15432308727316
17	100	50	0.32332641825595
17	102	51	0.12659059697183
17	104	52	0.13610283021446
17	106	53	0.23145053645721
17	108	54	0.3028584387501
17	110	55	0.17333403523975
17	112	56	0.13961925958523
17	114	57	0.23692103162377
17	116	58	0.15500893347842
17	118	59	0.18233835072784
17	120	60	0.24986422887413
17	122	61	0.30915253039316
17	124	62	0.15042352422008
17	126	63	0.19704429640901
17	128	64	0.22494896656878
17	130	65	0.22453335568526
17	132	66	0.17545857619461
17	134	67	0.221004916758
17	136	68	0.13224768529995
17	138	69	0.093288093617645
17	140	70	0.11513000912371
17	142	71	0.15493513042036
17	144	72	0.36904728997684
17	146	73	0.36677142551174
17	148	74	0.14887254351413
17	150	75	0.20529021320867
17	152	76	0.1681347120659
17	154	77	0.23335496675009
17	156	78	0.21285208781756
17	158	79	0.25475764145746
17	160	80	0.17658724263845
17	162	81	0.30731197415467
17	164	82	0.16445801714215
17	166	83	0.19288733563041
17	168	84	0.25987553326903
17	170	85	0.18874595909989
17	172	86	0.28469464178638
17	174	87	0.24052088150536
17	176	88	0.24135339721296
17	178	89	0.14544883724257
17	180	90	0.17305100483654
17	182	91	0.18054731284041
17	184	92	0.24317921086266
17	186	93	0.18982654193318
17	188	94	0.30375349230032
17	190	95	0.18600154327058
17	192	96	0.11641264297982
17	194	97	0.35521597590744
17	196	98	0.16377353117362
17	198	99	0.20807039872237
17	200	100	0.32927208043115
16	32	16	76.65
16	34	17	76.65
16	36	18	76.65
16	38	19	76.65
16	40	20	76.65
16	42	21	76.65
16	44	22	76.65
16	46	23	76.65
16	48	24	76.65
16	50	25	76.65
16	52	26	76.65
16	54	27	76.65
16	56	28	76.65
16	58	29	76.65
16	60	30	76.65
16	62	31	76.65
16	64	32	76.65
16	66	33	76.65
16	68	34	76.65
16	70	35	76.65
16	72	36	76.65
16	74	37	76.65
16	76	38	76.65
16	78	39	76.65
16	80	40	76.65
16	82	41	76.65
16	84	42	76.65
16	86	43	76.65
16	88	44	76.65
16	90	45	76.65
16	92	46	76.65
16	94	47	76.65
16	96	48	76.65
16	98	49	76.65
16	100	50	76.65
16	102	51	76.65
16	104	52	76.65
16	106	53	76.65
16	108	54	76.65
16	110	55	76.65
16	112	56	76.65
16	114	57	76.65
16	116	58	76.65
16	118	59	76.65
16	120	60	76.65
16	122	61	76.65
16	124	62	76.65
16	126	63	76.65
16	128	64	76.65
16	130	65	76.65
16	132	66	76.65
16	134	67	76.65
16	136	68	76.65
16	138	69	76.65
16	140	70	76.65
16	142	71	76.65
16	144	72	76.65
16	146	73	76.65
16	148	74	76.65
16	150	75	76.65
16	152	76	76.65
16	154	77	76.65
16	156	78	76.65
16	158	79	76.65
16	160	80	76.65
16	162	81	76.65
16	164	82	76.65
16	166	83	76.65
16	168	84	76.65
16	170	85	76.65
16	172	86	76.65
16	174	87	76.65
16	176	88	76.65
16	178	89	76.65
16	180	90	76.65
16	182	91	76.65
16	184	92	76.65
16	186	93	76.65
16	188	94	76.65
16	190	95	76.65
16	192	96	76.65
16	194	97	76.65
16	196	98	76.65
16	198	99	76.65
16	200	100	76.65
15	32	16	27.6
15	34	17	27.6
15	36	18	42.705985736825
15	38	19	48.001971473651
15	40	20	48.861509417682
15	42	21	49.288884131312
15	44	22	49.537740411068
15	46	23	49.739198156618
15	48	24	49.967405701581
15	50	25	50.198688670624
15	52	26	50.369100034346
15	54	27	50.492656641372
15	56	28	50.672542732245
15	58	29	50.806423144859
15	60	30	51.028554771474
15	62	31	51.269724464303
15	64	32	51.46631276597
15	66	33	51.667737542877
15	68	34	51.85180855058
15	70	35	52.156075815643
15	72	36	52.396805208616
15	74	37	52.54089283033
15	76	38	52.736567073335
15	78	39	53.049499471675
15	80	40	53.224905559201
15	82	41	53.454577865608
15	84	42	53.552576313631
15	86	43	53.691581240507
15	88	44	54.020649912502
15	90	45	54.213292498921
15	92	46	54.448781749676
15	94	47	54.631012845033
15	96	48	54.847505767126
15	98	49	55.035874516822
15	100	50	55.190197604095
15	102	51	55.513524022351
15	104	52	55.640114619322
15	106	53	55.776217449537
15	108	54	56.007667985994
15	110	55	56.310526424744
15	112	56	56.483860459984
15	114	57	56.623479719569
15	116	58	56.860400751193
15	118	59	57.015409684671
15	120	60	57.197748035399
15	122	61	57.447612264273
15	124	62	57.756764794667
15	126	63	57.907188318887
15	128	64	58.104232615296
15	130	65	58.329181581864
15	132	66	58.55371493755
15	134	67	58.729173513744
15	136	68	58.950178430502
15	138	69	59.082426115802
15	140	70	59.17571420942
15	142	71	59.290844218544
15	144	72	59.445779348964
15	146	73	59.814826638941
15	148	74	60.181598064453
15	150	75	60.330470607967
15	152	76	60.535760821175
15	154	77	60.703895533241
15	156	78	60.937250499991
15	158	79	61.150102587809
15	160	80	61.404860229266
15	162	81	61.581447471905
15	164	82	61.888759446059
15	166	83	62.053217463202
15	168	84	62.246104798832
15	170	85	62.505980332101
15	172	86	62.694726291201
15	174	87	62.979420932987
15	176	88	63.219941814493
15	178	89	63.461295211706
15	180	90	63.606744048948
15	182	91	63.779795053785
15	184	92	63.960342366625
15	186	93	64.203521577488
15	188	94	64.393348119421
15	190	95	64.697101611721
15	192	96	64.883103154992
15	194	97	64.999515797972
15	196	98	65.354731773879
15	198	99	65.518505305053
15	200	100	65.726575703775
24	46	23	0.973
24	48	24	0.973
24	50	25	0.973
24	52	26	0.973
24	54	27	0.973
24	56	28	0.973
24	58	29	1.1187247824016
24	60	30	1.1191858917356
24	62	31	1.1326856401338
24	64	32	0.973
24	66	33	1.1352562665507
24	68	34	0.973
24	70	35	1.1588144819209
24	72	36	0.973
24	74	37	1.1176180006698
24	76	38	1.1205463655047
24	78	39	1.1210305699369
24	80	40	1.1373550878457
24	82	41	0.973
24	84	42	1.1161220989366
24	86	43	1.1137646688351
24	88	44	1.136496416831
24	90	45	1.1226503815022
24	92	46	1.1148008359645
24	94	47	1.1150523255916
24	96	48	1.1385769558246
24	98	49	0.973
24	100	50	1.1173209978738
24	102	51	1.1316713928745
24	104	52	0.973
24	106	53	1.1209321176309
24	108	54	1.1161759917592
24	110	55	1.1442895851955
24	112	56	0.973
24	114	57	1.1122491850522
24	116	58	1.1342305171298
24	118	59	0.973
24	120	60	1.1268553986301
24	122	61	1.1237886921339
24	124	62	1.1328691977588
24	126	63	0.973
24	128	64	1.1245379317932
24	130	65	1.1149375713562
24	132	66	1.126007394226
24	134	67	1.1240908401295
24	136	68	0.973
24	138	69	1.1259578821756
24	140	70	0.973
24	142	71	1.1204442885107
24	144	72	1.1167884219979
24	146	73	1.1409314280842
24	148	74	1.1157858734827
24	150	75	1.1186566268145
24	152	76	1.1275129894331
24	154	77	1.1149261353497
24	156	78	1.1227726997753
24	158	79	1.1217578283207
24	160	80	1.1182551301783
24	162	81	1.1236891375721
24	164	82	1.1164362572132
24	166	83	1.1315162050619
24	168	84	0.973
24	170	85	1.1230128924586
24	172	86	1.1207611652472
24	174	87	1.1353658492885
24	176	88	1.1161527495546
24	178	89	1.1173653681946
24	180	90	1.1171781781936
24	182	91	1.119870578146
24	184	92	1.1176505678244
24	186	93	1.1237183695119
24	188	94	1.1196701749545
24	190	95	1.1296144519257
24	192	96	0.973
24	194	97	1.1199059559833
24	196	98	1.1337762994057
24	198	99	0.973
24	200	100	1.1203042399824
23	46	23	-8.2767164135811
23	48	24	-2.9374916570181
23	50	25	-0.27964161969111
23	52	26	-0.20792737530932
23	54	27	-0.13561665117626
23	56	28	-0.1365385192887
23	58	29	0.049687687478078
23	60	30	0.024646467363222
23	62	31	0.12232358056806
23	64	32	-0.14965780174795
23	66	33	0.15382028560475
23	68	34	-0.18506145618399
23	70	35	0.29666785985437
23	72	36	-0.23904104983535
23	74	37	-0.0058898424792061
23	76	38	0.028589832086307
23	78	39	0.018250220914163
23	80	40	0.1320653572316
23	82	41	-0.17252005943768
23	84	42	-0.02448941119904
23	86	43	-0.044345854900748
23	88	44	0.18509982008306
23	90	45	-0.0097393391581422
23	92	46	-0.091801636445138
23	94	47	-0.046969380861071
23	96	48	0.17728339664547
23	98	49	-0.14967699157409
23	100	50	-0.0071046936424416
23	102	51	0.12186845075888
23	104	52	-0.1506677611963
23	106	53	0.051614282035322
23	108	54	-0.029768831744281
23	110	55	0.20272318050048
23	112	56	-0.16109592827423
23	114	57	-0.099398842706467
23	116	58	0.17520942667517
23	118	59	-0.15695468003346
23	120	60	0.11267796806974
23	122	61	0.027612145744935
23	124	62	0.08341482844112
23	126	63	-0.20227508680703
23	128	64	0.08170157555954
23	130	65	-0.063784644767253
23	132	66	0.083729448911846
23	134	67	0.025322050621197
23	136	68	-0.11736057623242
23	138	69	0.087921820444856
23	140	70	-0.18089295675331
23	142	71	0.096930466906676
23	144	72	-0.0030046991408569
23	146	73	0.18786565601555
23	148	74	-0.097325977016342
23	150	75	-0.026540326001935
23	152	76	0.066063323486501
23	154	77	-0.089027165994314
23	156	78	0.038318015521359
23	158	79	0.0099532749145114
23	160	80	-0.030407433344558
23	162	81	0.037357734112751
23	164	82	-0.055071614075684
23	166	83	0.10678248566383
23	168	84	-0.11708122992199
23	170	85	0.045778807240525
23	172	86	0.0016761869768432
23	174	87	0.11389040772678
23	176	88	-0.094204981316025
23	178	89	-0.04453444355021
23	180	90	-0.025671487643588
23	182	91	0.017483703670661
23	184	92	-0.01589879468388
23	186	93	0.052766653119742
23	188	94	-0.011910709598311
23	190	95	0.078697863762818
23	192	96	-0.14197766362152
23	194	97	0.029285600452466
23	196	98	0.12460855212411
23	198	99	-0.13707463173963
23	200	100	0.024032458295038
22	44	22	12.069134362524
22	46	23	3.7924179489427
22	48	24	0.85492629192459
22	50	25	0.57528467223347
22	52	26	0.36735729692416
22	54	27	0.23174064574789
22	56	28	0.095202126459197
22	58	29	0.14488981393728
22	60	30	0.1695362813005
22	62	31	0.29185986186856
22	64	32	0.14220206012062
22	66	33	0.29602234572536
22	68	34	0.11096088954137
22	70	35	0.40762874939574
22	72	36	0.16858769956039
22	74	37	0.16269785708118
22	76	38	0.19128768916749
22	78	39	0.20953791008165
22	80	40	0.34160326731325
22	82	41	0.16908320787557
22	84	42	0.14459379667653
22	86	43	0.10024794177578
22	88	44	0.28534776185884
22	90	45	0.2756084227007
22	92	46	0.18380678625556
22	94	47	0.13683740539449
22	96	48	0.31412080203996
22	98	49	0.16444381046587
22	100	50	0.15733911682343
22	102	51	0.2792075675823
22	104	52	0.12853980638601
22	106	53	0.18015408842133
22	108	54	0.15038525667705
22	110	55	0.35310843717753
22	112	56	0.19201250890331
22	114	57	0.09261366619684
22	116	58	0.26782309287201
22	118	59	0.11086841283856
22	120	60	0.22354638090829
22	122	61	0.25115852665323
22	124	62	0.33457335509435
22	126	63	0.13229826828732
22	128	64	0.21399984384686
22	130	65	0.15021519907961
22	132	66	0.23394464799145
22	134	67	0.25926669861265
22	136	68	0.14190612238023
22	138	69	0.22982794282509
22	140	70	0.048934986071778
22	142	71	0.14586545297845
22	144	72	0.1428607538376
22	146	73	0.33072640985315
22	148	74	0.2334004328368
22	150	75	0.20686010683487
22	152	76	0.27292343032137
22	154	77	0.18389626432706
22	156	78	0.22221427984841
22	158	79	0.23216755476293
22	160	80	0.20176012141837
22	162	81	0.23911785553112
22	164	82	0.18404624145544
22	166	83	0.29082872711927
22	168	84	0.17374749719728
22	170	85	0.2195263044378
22	172	86	0.22120249141465
22	174	87	0.33509289914143
22	176	88	0.2408879178254
22	178	89	0.19635347427519
22	180	90	0.17068198663161
22	182	91	0.18816569030227
22	184	92	0.17226689561839
22	186	93	0.22503354873813
22	188	94	0.21312283913982
22	190	95	0.29182070290264
22	192	96	0.14984303928111
22	194	97	0.17912863973358
22	196	98	0.30373719185769
22	198	99	0.16666256011806
22	200	100	0.19069501841309
21	42	21	76.65
21	44	22	76.65
21	46	23	76.65
21	48	24	76.65
21	50	25	76.65
21	52	26	76.65
21	54	27	76.65
21	56	28	76.65
21	58	29	76.65
21	60	30	76.65
21	62	31	76.65
21	64	32	76.65
21	66	33	76.65
21	68	34	76.65
21	70	35	76.65
21	72	36	76.65
21	74	37	76.65
21	76	38	76.65
21	78	39	76.65
21	80	40	76.65
21	82	41	76.65
21	84	42	76.65
21	86	43	76.65
21	88	44	76.65
21	90	45	76.65
21	92	46	76.65
21	94	47	76.65
21	96	48	76.65
21	98	49	76.65
21	100	50	76.65
21	102	51	76.65
21	104	52	76.65
21	106	53	76.65
21	108	54	76.65
21	110	55	76.65
21	112	56	76.65
21	114	57	76.65
21	116	58	76.65
21	118	59	76.65
21	120	60	76.65
21	122	61	76.65
21	124	62	76.65
21	126	63	76.65
21	128	64	76.65
21	130	65	76.65
21	132	66	76.65
21	134	67	76.65
21	136	68	76.65
21	138	69	76.65
21	140	70	76.65
21	142	71	76.65
21	144	72	76.65
21	146	73	76.65
21	148	74	76.65
21	150	75	76.65
21	152	76	76.65
21	154	77	76.65
21	156	78	76.65
21	158	79	76.65
21	160	80	76.65
21	162	81	76.65
21	164	82	76.65
21	166	83	76.65
21	168	84	76.65
21	170	85	76.65
21	172	86	76.65
21	174	87	76.65
21	176	88	76.65
21	178	89	76.65
21	180	90	76.65
21	182	91	76.65
21	184	92	76.65
21	186	93	76.65
21	188	94	76.65
21	190	95	76.65
21	192	96	76.65
21	194	97	76.65
21	196	98	76.65
21	198	99	76.65
21	200	100	76.65
20	42	21	27.6
20	44	22	27.6
20	46	23	39.669134362524
20	48	24	43.461552311466
20	50	25	44.316478603391
20	52	26	44.891763275625
20	54	27	45.259120572549
20	56	28	45.490861218297
20	58	29	45.586063344756
20	60	30	45.730953158693
20	62	31	45.900489439994
20	64	32	46.192349301862
20	66	33	46.334551361983
20	68	34	46.630573707708
20	70	35	46.741534597249
20	72	36	47.149163346645
20	74	37	47.317751046206
20	76	38	47.480448903287
20	78	39	47.671736592454
20	80	40	47.881274502536
20	82	41	48.222877769849
20	84	42	48.391960977725
20	86	43	48.536554774401
20	88	44	48.636802716177
20	90	45	48.922150478036
20	92	46	49.197758900737
20	94	47	49.381565686992
20	96	48	49.518403092387
20	98	49	49.832523894427
20	100	50	49.996967704892
20	102	51	50.154306821716
20	104	52	50.433514389298
20	106	53	50.562054195684
20	108	54	50.742208284106
20	110	55	50.892593540783
20	112	56	51.24570197796
20	114	57	51.437714486863
20	116	58	51.53032815306
20	118	59	51.798151245932
20	120	60	51.909019658771
20	122	61	52.132566039679
20	124	62	52.383724566332
20	126	63	52.718297921427
20	128	64	52.850596189714
20	130	65	53.064596033561
20	132	66	53.21481123264
20	134	67	53.448755880632
20	136	68	53.708022579245
20	138	69	53.849928701625
20	140	70	54.07975664445
20	142	71	54.128691630522
20	144	72	54.2745570835
20	146	73	54.417417837338
20	148	74	54.748144247191
20	150	75	54.981544680028
20	152	76	55.188404786863
20	154	77	55.461328217184
20	156	78	55.645224481511
20	158	79	55.867438761359
20	160	80	56.099606316122
20	162	81	56.301366437541
20	164	82	56.540484293072
20	166	83	56.724530534527
20	168	84	57.015359261646
20	170	85	57.189106758844
20	172	86	57.408633063282
20	174	87	57.629835554696
20	176	88	57.964928453838
20	178	89	58.205816371663
20	180	90	58.402169845938
20	182	91	58.57285183257
20	184	92	58.761017522872
20	186	93	58.93328441849
20	188	94	59.158317967229
20	190	95	59.371440806368
20	192	96	59.663261509271
20	194	97	59.813104548552
20	196	98	59.992233188286
20	198	99	60.295970380143
20	200	100	60.462632940262
29	56	28	0.973
29	58	29	0.973
29	60	30	1.1219344009003
29	62	31	0.973
29	64	32	1.1402761131857
29	66	33	0.973
29	68	34	1.1335508480918
29	70	35	0.973
29	72	36	1.1338353094747
29	74	37	1.1225383690922
29	76	38	1.1154749757041
29	78	39	1.1131160544497
29	80	40	1.134579385643
29	82	41	1.1290370978446
29	84	42	0.973
29	86	43	1.1128301851444
29	88	44	1.1186907984719
29	90	45	1.1171923803254
29	92	46	1.1347161955493
29	94	47	1.1148699140308
29	96	48	1.1231239402703
29	98	49	1.119294904026
29	100	50	1.1189893457732
29	102	51	1.1138939016932
29	104	52	1.1396277771455
29	106	53	0.973
29	108	54	1.1177448353686
29	110	55	1.1306236206671
29	112	56	1.1215529599755
29	114	57	1.1221704798238
29	116	58	0.973
29	118	59	1.122608186478
29	120	60	1.128896292028
29	122	61	1.115147352513
29	124	62	1.119395274476
29	126	63	1.1300223310214
29	128	64	1.1222659742209
29	130	65	0.973
29	132	66	1.1217902700859
29	134	67	1.1258046375756
29	136	68	1.1207798950264
29	138	69	0.973
29	140	70	1.1371450542201
29	142	71	0.973
29	144	72	1.1213246125244
29	146	73	1.1157613012481
29	148	74	1.1489692430738
29	150	75	0.973
29	152	76	1.1174086535364
29	154	77	1.1251950191967
29	156	78	0.973
29	158	79	1.1233369302576
29	160	80	1.1250259423204
29	162	81	1.1196159934478
29	164	82	1.1188853574273
29	166	83	1.116003138291
29	168	84	1.1474014359308
29	170	85	0.973
29	172	86	1.1212881519138
29	174	87	1.1254837602917
29	176	88	1.145878219005
29	178	89	0.973
29	180	90	0.973
29	182	91	1.123190773412
29	184	92	1.1158091311104
29	186	93	1.1275288560198
29	188	94	1.1171271033048
29	190	95	1.1148923543402
29	192	96	1.1328005179147
29	194	97	1.1154086166452
29	196	98	1.1269196893988
29	198	99	1.1294172793539
29	200	100	0.973
28	56	28	-9.3655431447476
28	58	29	-1.5090744933743
28	60	30	0.036482853546007
28	62	31	-0.10122467972931
28	64	32	0.20331342741047
28	66	33	-0.12470921808947
28	68	34	0.11926632042198
28	70	35	-0.18941202419649
28	72	36	0.15892471214978
28	74	37	-0.0066251158257435
28	76	38	-0.079900331817292
28	78	39	-0.080673717856469
28	80	40	0.16845464613329
28	82	41	0.045212096634214
28	84	42	-0.12927782462569
28	86	43	-0.087946407378915
28	88	44	0.043404492633995
28	90	45	0.00059756495007693
28	92	46	0.14685809048999
28	94	47	-0.097913313562576
28	96	48	0.034473535635258
28	98	49	-0.019090301005974
28	100	50	-0.013339037655094
28	102	51	-0.072791894305163
28	104	52	0.18901344803909
28	106	53	-0.1995809810757
28	108	54	0.025884120480853
28	110	55	0.12279181912458
28	112	56	-0.01124294888808
28	114	57	-0.00063997544055766
28	116	58	-0.17670952662857
28	118	59	0.098689369644207
28	120	60	0.092675341737168
28	122	61	-0.08395494479575
28	124	62	0.0056413391460322
28	126	63	0.093483576266075
28	128	64	-0.012183874082991
28	130	65	-0.15100205674032
28	132	66	0.064870423173148
28	134	67	0.06381992598463
28	136	68	-0.011429076414566
28	138	69	-0.11723507166248
28	140	70	0.1780476322674
28	142	71	-0.24800134782433
28	144	72	0.10446692135529
28	146	73	-0.020898914532514
28	148	74	0.23672143077764
28	150	75	-0.13448563463289
28	152	76	-0.041658797379869
28	154	77	0.054059594683439
28	156	78	-0.12661544429801
28	158	79	0.077746936980052
28	160	80	0.050044076740439
28	162	81	-0.023426678324903
28	164	82	-0.020521006920146
28	166	83	-0.044847304646101
28	168	84	0.21415623864581
28	170	85	-0.22408752391831
28	172	86	0.042540304240405
28	174	87	0.056915448712079
28	176	88	0.16157752424462
28	178	89	-0.17763964626494
28	180	90	-0.12323915491439
28	182	91	0.082817627788882
28	184	92	-0.041497999639933
28	186	93	0.094721761506404
28	188	94	-0.049875984832004
28	190	95	-0.055974554509526
28	192	96	0.13852789104242
28	194	97	-0.084799776613382
28	196	98	0.067629909086196
28	198	99	0.054361228006864
28	200	100	-0.16363204630058
27	54	27	11.047376572932
27	56	28	1.6818334281847
27	58	29	0.17275893481031
27	60	30	0.20924178835632
27	62	31	0.10801710862701
27	64	32	0.31133053603748
27	66	33	0.18662131794801
27	68	34	0.30588763836999
27	70	35	0.1164756141735
27	72	36	0.27540032632328
27	74	37	0.26877521049754
27	76	38	0.18887487868024
27	78	39	0.10820116082378
27	80	40	0.27665580695706
27	82	41	0.32186790359128
27	84	42	0.19259007896559
27	86	43	0.10464367158667
27	88	44	0.14804816422067
27	90	45	0.14864572917075
27	92	46	0.29550381966073
27	94	47	0.19759050609816
27	96	48	0.23206404173342
27	98	49	0.21297374072744
27	100	50	0.19963470307235
27	102	51	0.12684280876719
27	104	52	0.31585625680628
27	106	53	0.11627527573058
27	108	54	0.14215939621143
27	110	55	0.26495121533601
27	112	56	0.25370826644793
27	114	57	0.25306829100737
27	116	58	0.076358764378801
27	118	59	0.17504813402301
27	120	60	0.26772347576018
27	122	61	0.18376853096443
27	124	62	0.18940987011046
27	126	63	0.28289344637653
27	128	64	0.27070957229354
27	130	65	0.11970751555322
27	132	66	0.18457793872637
27	134	67	0.248397864711
27	136	68	0.23696878829643
27	138	69	0.11973371663395
27	140	70	0.29778134890135
27	142	71	0.049780001077013
27	144	72	0.15424692243231
27	146	73	0.13334800789979
27	148	74	0.37006943867744
27	150	75	0.23558380404455
27	152	76	0.19392500666468
27	154	77	0.24798460134812
27	156	78	0.12136915705011
27	158	79	0.19911609403016
27	160	80	0.2491601707706
27	162	81	0.2257334924457
27	164	82	0.20521248552555
27	166	83	0.16036518087945
27	168	84	0.37452141952526
27	170	85	0.15043389560695
27	172	86	0.19297419984736
27	174	87	0.24988964855944
27	176	88	0.41146717280405
27	178	89	0.23382752653911
27	180	90	0.11058837162473
27	182	91	0.19340599941361
27	184	92	0.15190799977368
27	186	93	0.24662976128008
27	188	94	0.19675377644808
27	190	95	0.14077922193855
27	192	96	0.27930711298097
27	194	97	0.19450733636759
27	196	98	0.26213724545379
27	198	99	0.31649847346065
27	200	100	0.15286642716007
26	52	26	76.65
26	54	27	76.65
26	56	28	76.65
26	58	29	76.65
26	60	30	76.65
26	62	31	76.65
26	64	32	76.65
26	66	33	76.65
26	68	34	76.65
26	70	35	76.65
26	72	36	76.65
26	74	37	76.65
26	76	38	76.65
26	78	39	76.65
26	80	40	76.65
26	82	41	76.65
26	84	42	76.65
26	86	43	76.65
26	88	44	76.65
26	90	45	76.65
26	92	46	76.65
26	94	47	76.65
26	96	48	76.65
26	98	49	76.65
26	100	50	76.65
26	102	51	76.65
26	104	52	76.65
26	106	53	76.65
26	108	54	76.65
26	110	55	76.65
26	112	56	76.65
26	114	57	76.65
26	116	58	76.65
26	118	59	76.65
26	120	60	76.65
26	122	61	76.65
26	124	62	76.65
26	126	63	76.65
26	128	64	76.65
26	130	65	76.65
26	132	66	76.65
26	134	67	76.65
26	136	68	76.65
26	138	69	76.65
26	140	70	76.65
26	142	71	76.65
26	144	72	76.65
26	146	73	76.65
26	148	74	76.65
26	150	75	76.65
26	152	76	76.65
26	154	77	76.65
26	156	78	76.65
26	158	79	76.65
26	160	80	76.65
26	162	81	76.65
26	164	82	76.65
26	166	83	76.65
26	168	84	76.65
26	170	85	76.65
26	172	86	76.65
26	174	87	76.65
26	176	88	76.65
26	178	89	76.65
26	180	90	76.65
26	182	91	76.65
26	184	92	76.65
26	186	93	76.65
26	188	94	76.65
26	190	95	76.65
26	192	96	76.65
26	194	97	76.65
26	196	98	76.65
26	198	99	76.65
26	200	100	76.65
25	52	26	27.6
25	54	27	27.6
25	56	28	38.647376572932
25	58	29	40.329210001117
25	60	30	40.501968935927
25	62	31	40.711210724284
25	64	32	40.819227832911
25	66	33	41.130558368948
25	68	34	41.317179686896
25	70	35	41.623067325266
25	72	36	41.73954293944
25	74	37	42.014943265763
25	76	38	42.28371847626
25	78	39	42.472593354941
25	80	40	42.580794515764
25	82	41	42.857450322721
25	84	42	43.179318226313
25	86	43	43.371908305278
25	88	44	43.476551976865
25	90	45	43.624600141086
25	92	46	43.773245870256
25	94	47	44.068749689917
25	96	48	44.266340196015
25	98	49	44.498404237749
25	100	50	44.711377978476
25	102	51	44.911012681548
25	104	52	45.037855490316
25	106	53	45.353711747122
25	108	54	45.469987022853
25	110	55	45.612146419064
25	112	56	45.8770976344
25	114	57	46.130805900848
25	116	58	46.383874191855
25	118	59	46.460232956234
25	120	60	46.635281090257
25	122	61	46.903004566017
25	124	62	47.086773096982
25	126	63	47.276182967092
25	128	64	47.559076413469
25	130	65	47.829785985762
25	132	66	47.949493501315
25	134	67	48.134071440042
25	136	68	48.382469304753
25	138	69	48.619438093049
25	140	70	48.739171809683
25	142	71	49.036953158585
25	144	72	49.086733159662
25	146	73	49.240980082094
25	148	74	49.374328089994
25	150	75	49.744397528671
25	152	76	49.979981332716
25	154	77	50.17390633938
25	156	78	50.421890940728
25	158	79	50.543260097779
25	160	80	50.742376191809
25	162	81	50.991536362579
25	164	82	51.217269855025
25	166	83	51.422482340551
25	168	84	51.58284752143
25	170	85	51.957368940955
25	172	86	52.107802836562
25	174	87	52.30077703641
25	176	88	52.550666684969
25	178	89	52.962133857773
25	180	90	53.195961384312
25	182	91	53.306549755937
25	184	92	53.499955755351
25	186	93	53.651863755124
25	188	94	53.898493516404
25	190	95	54.095247292852
25	192	96	54.236026514791
25	194	97	54.515333627772
25	196	98	54.709840964139
25	198	99	54.971978209593
25	200	100	55.288476683054
34	66	33	0.973
34	68	34	0.973
34	70	35	1.1397738484582
34	72	36	0.973
34	74	37	1.1348820146447
34	76	38	1.119691031609
34	78	39	1.1223819391302
34	80	40	0.973
34	82	41	1.1352128643161
34	84	42	1.1228676843856
34	86	43	1.1190608528981
34	88	44	0.973
34	90	45	1.1185115689717
34	92	46	1.115110163792
34	94	47	1.1403965342428
34	96	48	0.973
34	98	49	1.1210966981899
34	100	50	1.1422152564259
34	102	51	0.973
34	104	52	1.1184950900549
34	106	53	1.1299599546371
34	108	54	0.973
34	110	55	1.1140030317871
34	112	56	1.1334715836133
34	114	57	0.973
34	116	58	1.1423358319042
34	118	59	0.973
34	120	60	1.1199043096396
34	122	61	1.1430198334799
34	124	62	0.973
34	126	63	1.1268908190143
34	128	64	1.1350211804556
34	130	65	1.117956201889
34	132	66	0.973
34	134	67	1.1217147317277
34	136	68	1.1256160146414
34	138	69	1.1180988938916
34	140	70	1.120690779224
34	142	71	1.1213649294296
34	144	72	0.973
34	146	73	1.1176718301435
34	148	74	1.1178696082271
34	150	75	1.1263316931953
34	152	76	1.1412979974823
34	154	77	0.973
34	156	78	1.1294575900144
34	158	79	0.973
34	160	80	1.1259957310677
34	162	81	1.1145184998904
34	164	82	1.1357587929161
34	166	83	1.1160299620992
34	168	84	1.1158820665046
34	170	85	1.1244857834218
34	172	86	1.1201043460909
34	174	87	1.1253047884055
34	176	88	0.973
34	178	89	1.1387297870584
34	180	90	1.1421708909885
34	182	91	0.973
34	184	92	1.1219324037129
34	186	93	1.1126546762746
34	188	94	1.12136989089
34	190	95	1.1257028046623
34	192	96	1.1228415969163
34	194	97	1.1211191318046
34	196	98	1.1202521273274
34	198	99	1.1200597412613
34	200	100	1.1305811394086
33	66	33	-6.3150494930067
33	68	34	-0.44297448281238
33	70	35	0.054645299350354
33	72	36	-0.37697998482599
33	74	37	0.17068666037181
33	76	38	-0.034978634518596
33	78	39	0.0058991741609763
33	80	40	-0.14608901323702
33	82	41	0.175359897186
33	84	42	-0.0050129881216838
33	86	43	-0.039532060751948
33	88	44	-0.11127420958687
33	90	45	0.030414328728261
33	92	46	-0.029166643289255
33	94	47	0.19508092373302
33	96	48	-0.21456237964508
33	98	49	0.067499872749576
33	100	50	0.17977128737591
33	102	51	-0.19888986557881
33	104	52	0.012694272458695
33	106	53	0.1054144626312
33	108	54	-0.10437836253549
33	110	55	-0.053431739668415
33	112	56	0.15840027529154
33	114	57	-0.10949243869837
33	116	58	0.18563498144766
33	118	59	-0.28692956774294
33	120	60	0.083874252882768
33	122	61	0.19874413755964
33	124	62	-0.23682691872243
33	126	63	0.11544972391138
33	128	64	0.11127087502776
33	130	65	-0.073251276758587
33	132	66	-0.17965926862038
33	134	67	0.088168879418569
33	136	68	0.070659094192921
33	138	69	-0.035354840787828
33	140	70	0.0085935158393546
33	142	71	0.010913846437281
33	144	72	-0.1333541265981
33	146	73	0.041619770176364
33	148	74	0.018007973647039
33	150	75	0.08661711837818
33	152	76	0.14257084235124
33	154	77	-0.21224543766468
33	156	78	0.10123843835095
33	158	79	-0.1371075314332
33	160	80	0.094496671280308
33	162	81	-0.075205220738351
33	164	82	0.15277587265428
33	166	83	-0.085201360978401
33	168	84	-0.052419775736277
33	170	85	0.063106571295838
33	172	86	-0.0089952117760907
33	174	87	0.04244021722773
33	176	88	-0.10235570929158
33	178	89	0.16607921005719
33	180	90	0.10783937755139
33	182	91	-0.32459274085672
33	184	92	0.072723191205703
33	186	93	-0.085427717692435
33	188	94	0.075274529408295
33	190	95	0.069935894466854
33	192	96	0.011043467245852
33	194	97	-0.0098532040662906
33	196	98	-0.013964127979632
33	198	99	-0.0095150879098474
33	200	100	0.082819450878899
32	64	32	7.1880483563123
32	66	33	0.8729988633056
32	68	34	0.43002438049322
32	70	35	0.48466967984357
32	72	36	0.10768969501758
32	74	37	0.27837635538939
32	76	38	0.2433977208708
32	78	39	0.24929689503177
32	80	40	0.10320788179476
32	82	41	0.27856777898076
32	84	42	0.27355479085907
32	86	43	0.23402273010713
32	88	44	0.12274852052025
32	90	45	0.15316284924851
32	92	46	0.12399620595926
32	94	47	0.31907712969228
32	96	48	0.1045147500472
32	98	49	0.17201462279678
32	100	50	0.35178591017269
32	102	51	0.15289604459389
32	104	52	0.16559031705258
32	106	53	0.27100477968378
32	108	54	0.16662641714829
32	110	55	0.11319467747987
32	112	56	0.27159495277141
32	114	57	0.16210251407304
32	116	58	0.34773749552071
32	118	59	0.06080792777777
32	120	60	0.14468218066054
32	122	61	0.34342631822018
32	124	62	0.10659939949775
32	126	63	0.22204912340913
32	128	64	0.33331999843689
32	130	65	0.2600687216783
32	132	66	0.080409453057923
32	134	67	0.16857833247649
32	136	68	0.23923742666941
32	138	69	0.20388258588158
32	140	70	0.21247610172094
32	142	71	0.22338994815822
32	144	72	0.090035821560125
32	146	73	0.13165559173649
32	148	74	0.14966356538353
32	150	75	0.23628068376171
32	152	76	0.37885152611295
32	154	77	0.16660608844827
32	156	78	0.26784452679922
32	158	79	0.13073699536602
32	160	80	0.22523366664633
32	162	81	0.15002844590798
32	164	82	0.30280431856226
32	166	83	0.21760295758386
32	168	84	0.16518318184758
32	170	85	0.22828975314342
32	172	86	0.21929454136733
32	174	87	0.26173475859506
32	176	88	0.15937904930348
32	178	89	0.32545825936067
32	180	90	0.43329763691206
32	182	91	0.10870489605534
32	184	92	0.18142808726104
32	186	93	0.096000369568606
32	188	94	0.1712748989769
32	190	95	0.24121079344375
32	192	96	0.25225426068961
32	194	97	0.24240105662332
32	196	98	0.22843692864368
32	198	99	0.21892184073384
32	200	100	0.30174129161274
31	62	31	76.65
31	64	32	76.65
31	66	33	76.65
31	68	34	76.65
31	70	35	76.65
31	72	36	76.65
31	74	37	76.65
31	76	38	76.65
31	78	39	76.65
31	80	40	76.65
31	82	41	76.65
31	84	42	76.65
31	86	43	76.65
31	88	44	76.65
31	90	45	76.65
31	92	46	76.65
31	94	47	76.65
31	96	48	76.65
31	98	49	76.65
31	100	50	76.65
31	102	51	76.65
31	104	52	76.65
31	106	53	76.65
31	108	54	76.65
31	110	55	76.65
31	112	56	76.65
31	114	57	76.65
31	116	58	76.65
31	118	59	76.65
31	120	60	76.65
31	122	61	76.65
31	124	62	76.65
31	126	63	76.65
31	128	64	76.65
31	130	65	76.65
31	132	66	76.65
31	134	67	76.65
31	136	68	76.65
31	138	69	76.65
31	140	70	76.65
31	142	71	76.65
31	144	72	76.65
31	146	73	76.65
31	148	74	76.65
31	150	75	76.65
31	152	76	76.65
31	154	77	76.65
31	156	78	76.65
31	158	79	76.65
31	160	80	76.65
31	162	81	76.65
31	164	82	76.65
31	166	83	76.65
31	168	84	76.65
31	170	85	76.65
31	172	86	76.65
31	174	87	76.65
31	176	88	76.65
31	178	89	76.65
31	180	90	76.65
31	182	91	76.65
31	184	92	76.65
31	186	93	76.65
31	188	94	76.65
31	190	95	76.65
31	192	96	76.65
31	194	97	76.65
31	196	98	76.65
31	198	99	76.65
31	200	100	76.65
30	62	31	27.6
30	64	32	27.6
30	66	33	34.788048356312
30	68	34	35.661047219618
30	70	35	36.091071600111
30	72	36	36.575741279955
30	74	37	36.683430974972
30	76	38	36.961807330362
30	78	39	37.205205051232
30	80	40	37.454501946264
30	82	41	37.557709828059
30	84	42	37.83627760704
30	86	43	38.109832397899
30	88	44	38.343855128006
30	90	45	38.466603648526
30	92	46	38.619766497775
30	94	47	38.743762703734
30	96	48	39.062839833426
30	98	49	39.167354583473
30	100	50	39.33936920627
30	102	51	39.691155116443
30	104	52	39.844051161037
30	106	53	40.009641478089
30	108	54	40.280646257773
30	110	55	40.447272674921
30	112	56	40.560467352401
30	114	57	40.832062305173
30	116	58	40.994164819246
30	118	59	41.341902314766
30	120	60	41.402710242544
30	122	61	41.547392423205
30	124	62	41.890818741425
30	126	63	41.997418140923
30	128	64	42.219467264332
30	130	65	42.552787262769
30	132	66	42.812855984447
30	134	67	42.893265437505
30	136	68	43.061843769981
30	138	69	43.301081196651
30	140	70	43.504963782532
30	142	71	43.717439884253
30	144	72	43.940829832412
30	146	73	44.030865653972
30	148	74	44.162521245708
30	150	75	44.312184811092
30	152	76	44.548465494853
30	154	77	44.927317020966
30	156	78	45.093923109415
30	158	79	45.361767636214
30	160	80	45.49250463158
30	162	81	45.717738298226
30	164	82	45.867766744134
30	166	83	46.170571062696
30	168	84	46.38817402028
30	170	85	46.553357202128
30	172	86	46.781646955271
30	174	87	47.000941496639
30	176	88	47.262676255234
30	178	89	47.422055304537
30	180	90	47.747513563898
30	182	91	48.18081120081
30	184	92	48.289516096865
30	186	93	48.470944184126
30	188	94	48.566944553695
30	190	95	48.738219452672
30	192	96	48.979430246116
30	194	97	49.231684506805
30	196	98	49.474085563429
30	198	99	49.702522492072
30	200	100	49.921444332806
39	76	38	0.973
39	78	39	0.973
39	80	40	0.973
39	82	41	1.1162718026992
39	84	42	1.1321118229088
39	86	43	1.1204872206051
39	88	44	1.1178920359576
39	90	45	1.1262937171591
39	92	46	0.973
39	94	47	1.1171278372533
39	96	48	1.1383567065913
39	98	49	0.973
39	100	50	1.1142319123488
39	102	51	1.1595003667227
39	104	52	0.973
39	106	53	1.1273509986994
39	108	54	1.1153050331812
39	110	55	1.1202958811762
39	112	56	1.120666532834
39	114	57	1.1194940620623
39	116	58	1.1180845977352
39	118	59	1.1248904985676
39	120	60	1.1201000911688
39	122	61	0.973
39	124	62	1.1365446616379
39	126	63	0.973
39	128	64	1.1215285905368
39	130	65	1.1454067226565
39	132	66	0.973
39	134	67	1.1197359654779
39	136	68	1.1155093901233
39	138	69	1.1322841797105
39	140	70	0.973
39	142	71	1.1221793077031
39	144	72	1.1191729832392
39	146	73	1.1155994436778
39	148	74	1.1179425029631
39	150	75	1.1183079546686
39	152	76	1.123199388494
39	154	77	1.1571977840134
39	156	78	0.973
39	158	79	1.1430963126702
39	160	80	0.973
39	162	81	1.1227435632585
39	164	82	1.1243663146268
39	166	83	1.1199429943047
39	168	84	1.1170246318273
39	170	85	1.1313977285297
39	172	86	1.1164519861144
39	174	87	1.1165271896112
39	176	88	1.130890153357
39	178	89	0.973
39	180	90	1.1279750200956
39	182	91	1.1692901198589
39	184	92	0.973
39	186	93	1.1199405144813
39	188	94	1.1156680659012
39	190	95	1.1184038795881
39	192	96	1.1181207831207
39	194	97	1.1427364989491
39	196	98	0.973
39	198	99	1.1137430341736
39	200	100	1.1335609160721
38	76	38	-3.5567577693949
38	78	39	-0.10474968908788
38	80	40	-0.11195642140521
38	82	41	-0.013236194169388
38	84	42	0.13473005922068
38	86	43	-0.025228369716557
38	88	44	-0.041867334534574
38	90	45	0.056518256187084
38	92	46	-0.16169947216453
38	94	47	0.027971679697827
38	96	48	0.17990949147999
38	98	49	-0.14992945329575
38	100	50	-0.045838623596466
38	102	51	0.29825766520422
38	104	52	-0.31073099584508
38	106	53	0.12209170110473
38	108	54	-0.062966672181591
38	110	55	0.027339920298681
38	112	56	0.016494479450306
38	114	57	-0.0037324768950172
38	116	58	-0.017199934052248
38	118	59	0.056950849888538
38	120	60	-0.014538087233412
38	122	61	-0.13492755047745
38	124	62	0.19084783639966
38	126	63	-0.15128829275346
38	128	64	0.056204141073859
38	130	65	0.18995566945524
38	132	66	-0.17562426928162
38	134	67	0.00044602561381382
38	136	68	-0.049568809108632
38	138	69	0.12904975350205
38	140	70	-0.16960210905022
38	142	71	0.073451180131125
38	144	72	0.002814642040997
38	146	73	-0.041279701650894
38	148	74	0.010332609787076
38	150	75	0.0085786205577834
38	152	76	0.052023801385359
38	154	77	0.23391899093272
38	156	78	-0.34498289969295
38	158	79	0.22040396321897
38	160	80	-0.23928425703688
38	162	81	0.093090213802117
38	164	82	0.054110365845924
38	166	83	-0.013461513797686
38	168	84	-0.039523174109902
38	170	85	0.10730522403209
38	172	86	-0.074954279757565
38	174	87	-0.042267518027344
38	176	88	0.10891046364848
38	178	89	-0.16683015005136
38	180	90	0.11962276102327
38	182	91	0.27953259773229
38	184	92	-0.36518097602372
38	186	93	0.030916262381368
38	188	94	-0.035587711127081
38	190	95	0.017384129067785
38	192	96	0.0044168420948308
38	194	97	0.18653113781118
38	196	98	-0.12075151610206
38	198	99	-0.089783603374651
38	200	100	0.1436374844124
37	74	37	3.9259130089039
37	76	38	0.36915523950905
37	78	39	0.26440555042117
37	80	40	0.15244912901596
37	82	41	0.13921293484658
37	84	42	0.27394299406725
37	86	43	0.2487146243507
37	88	44	0.20684728981612
37	90	45	0.26336554600321
37	92	46	0.10166607383867
37	94	47	0.1296377535365
37	96	48	0.30954724501649
37	98	49	0.15961779172074
37	100	50	0.11377916812428
37	102	51	0.4120368333285
37	104	52	0.10130583748342
37	106	53	0.22339753858814
37	108	54	0.16043086640655
37	110	55	0.18777078670523
37	112	56	0.20426526615554
37	114	57	0.20053278926052
37	116	58	0.18333285520828
37	118	59	0.24028370509681
37	120	60	0.2257456178634
37	122	61	0.090818067385956
37	124	62	0.28166590378561
37	126	63	0.13037761103216
37	128	64	0.18658175210602
37	130	65	0.37653742156126
37	132	66	0.20091315227964
37	134	67	0.20135917789346
37	136	68	0.15179036878482
37	138	69	0.28084012228688
37	140	70	0.11123801323666
37	142	71	0.18468919336778
37	144	72	0.18750383540878
37	146	73	0.14622413375788
37	148	74	0.15655674354496
37	150	75	0.16513536410274
37	152	76	0.2171591654881
37	154	77	0.45107815642083
37	156	78	0.10609525672788
37	158	79	0.32649921994685
37	160	80	0.087214962909971
37	162	81	0.18030517671209
37	164	82	0.23441554255801
37	166	83	0.22095402876033
37	168	84	0.18143085465042
37	170	85	0.28873607868251
37	172	86	0.21378179892495
37	174	87	0.1715142808976
37	176	88	0.28042474454608
37	178	89	0.11359459449472
37	180	90	0.23321735551799
37	182	91	0.51274995325028
37	184	92	0.14756897722656
37	186	93	0.17848523960793
37	188	94	0.14289752848085
37	190	95	0.16028165754863
37	192	96	0.16469849964347
37	194	97	0.35122963745465
37	196	98	0.23047812135259
37	198	99	0.14069451797794
37	200	100	0.28433200239034
36	72	36	76.65
36	74	37	76.65
36	76	38	76.65
36	78	39	76.65
36	80	40	76.65
36	82	41	76.65
36	84	42	76.65
36	86	43	76.65
36	88	44	76.65
36	90	45	76.65
36	92	46	76.65
36	94	47	76.65
36	96	48	76.65
36	98	49	76.65
36	100	50	76.65
36	102	51	76.65
36	104	52	76.65
36	106	53	76.65
36	108	54	76.65
36	110	55	76.65
36	112	56	76.65
36	114	57	76.65
36	116	58	76.65
36	118	59	76.65
36	120	60	76.65
36	122	61	76.65
36	124	62	76.65
36	126	63	76.65
36	128	64	76.65
36	130	65	76.65
36	132	66	76.65
36	134	67	76.65
36	136	68	76.65
36	138	69	76.65
36	140	70	76.65
36	142	71	76.65
36	144	72	76.65
36	146	73	76.65
36	148	74	76.65
36	150	75	76.65
36	152	76	76.65
36	154	77	76.65
36	156	78	76.65
36	158	79	76.65
36	160	80	76.65
36	162	81	76.65
36	164	82	76.65
36	166	83	76.65
36	168	84	76.65
36	170	85	76.65
36	172	86	76.65
36	174	87	76.65
36	176	88	76.65
36	178	89	76.65
36	180	90	76.65
36	182	91	76.65
36	184	92	76.65
36	186	93	76.65
36	188	94	76.65
36	190	95	76.65
36	192	96	76.65
36	194	97	76.65
36	196	98	76.65
36	198	99	76.65
36	200	100	76.65
35	72	36	27.6
35	74	37	27.6
35	76	38	31.525913008904
35	78	39	31.895068248413
35	80	40	32.159473798834
35	82	41	32.31192292785
35	84	42	32.451135862697
35	86	43	32.725078856764
35	88	44	32.973793481115
35	90	45	33.180640770931
35	92	46	33.444006316934
35	94	47	33.545672390773
35	96	48	33.675310144309
35	98	49	33.984857389326
35	100	50	34.144475181046
35	102	51	34.258254349171
35	104	52	34.670291182499
35	106	53	34.771597019983
35	108	54	34.994994558571
35	110	55	35.155425424977
35	112	56	35.343196211682
35	114	57	35.547461477838
35	116	58	35.747994267099
35	118	59	35.931327122307
35	120	60	36.171610827404
35	122	61	36.397356445267
35	124	62	36.488174512653
35	126	63	36.769840416439
35	128	64	36.900218027471
35	130	65	37.086799779577
35	132	66	37.463337201138
35	134	67	37.664250353418
35	136	68	37.865609531311
35	138	69	38.017399900096
35	140	70	38.298240022383
35	142	71	38.40947803562
35	144	72	38.594167228987
35	146	73	38.781671064396
35	148	74	38.927895198154
35	150	75	39.084451941699
35	152	76	39.249587305802
35	154	77	39.46674647129
35	156	78	39.917824627711
35	158	79	40.023919884438
35	160	80	40.350419104385
35	162	81	40.437634067295
35	164	82	40.617939244007
35	166	83	40.852354786565
35	168	84	41.073308815326
35	170	85	41.254739669976
35	172	86	41.543475748659
35	174	87	41.757257547584
35	176	88	41.928771828481
35	178	89	42.209196573027
35	180	90	42.322791167522
35	182	91	42.55600852304
35	184	92	43.06875847629
35	186	93	43.216327453517
35	188	94	43.394812693125
35	190	95	43.537710221606
35	192	96	43.697991879154
35	194	97	43.862690378798
35	196	98	44.213920016252
35	198	99	44.444398137605
35	200	100	44.585092655583
44	88	44	1.1334331115266
44	90	45	1.1152994258462
44	92	46	1.1250892944112
44	94	47	0.973
44	96	48	1.1188946920684
44	98	49	1.126953544995
44	100	50	1.1223811539594
44	102	51	0.973
44	104	52	1.141963585638
44	106	53	0.973
44	108	54	1.1166964008399
44	110	55	1.1331524499193
44	112	56	0.973
44	114	57	1.1260290516384
44	116	58	1.115551769656
44	118	59	1.1239417501626
44	120	60	1.1191038206948
44	122	61	1.1192352262759
44	124	62	1.1169973176494
44	126	63	1.1208901832339
44	128	64	1.119963901393
44	130	65	1.1173727393888
44	132	66	1.1506060393118
44	134	67	0.973
44	136	68	1.1228148797705
44	138	69	0.973
44	140	70	1.1438686281451
44	142	71	0.973
44	144	72	1.1232486414662
44	146	73	1.1252459521581
44	148	74	0.973
44	150	75	1.1173903302778
44	152	76	1.1160829949949
44	154	77	1.1220170004132
44	156	78	1.1475958006696
44	158	79	0.973
44	160	80	1.1317515650753
44	162	81	0.973
44	164	82	1.1277076319243
44	166	83	1.1199438997092
44	168	84	1.1235976538968
44	170	85	1.1134942445828
44	172	86	1.1438588297736
44	174	87	0.973
44	176	88	1.1158185046641
44	178	89	1.1216589746643
44	180	90	1.1275046516961
44	182	91	1.1169932995613
44	184	92	1.1594173779065
44	186	93	0.973
44	188	94	1.1145342057184
44	190	95	1.113696800911
44	192	96	1.1155403715166
44	194	97	1.1305952037211
44	196	98	1.1166344886319
44	198	99	1.1264259775099
44	200	100	1.1140632083465
43	88	44	0.16771287043446
43	90	45	-0.08052030461528
43	92	46	0.058379151140719
43	94	47	-0.16183989696913
43	96	48	0.061004814738588
43	98	49	0.096108756147808
43	100	50	0.0086171074733083
43	102	51	-0.11257827976386
43	104	52	0.19887517027113
43	106	53	-0.17479513573968
43	108	54	-0.010807891477181
43	110	55	0.13763557791277
43	112	56	-0.17411293089569
43	114	57	0.10656826978613
43	116	58	-0.056493365908041
43	118	59	0.061086950275426
43	120	60	-0.016150619154402
43	122	61	-0.0069503456507894
43	124	62	-0.028848004669329
43	126	63	0.028303785145591
43	128	64	0.0043598551472246
43	130	65	-0.026244747544575
43	132	66	0.22259938220247
43	134	67	-0.21517950749433
43	136	68	0.039003728325511
43	138	69	-0.11518694593459
43	140	70	0.22409149699692
43	142	71	-0.24261338355271
43	144	72	0.096620932970339
43	146	73	0.058924201045016
43	148	74	-0.11205792394202
43	150	75	0.012262797090514
43	152	76	-0.010955268774193
43	154	77	0.058995890647429
43	156	78	0.19867906017085
43	158	79	-0.13292813931681
43	160	80	0.072643926451227
43	162	81	-0.28232691403833
43	164	82	0.15715898161536
43	166	83	0.00024626865710278
43	168	84	0.034523664132617
43	170	85	-0.098201873791646
43	172	86	0.20474634410927
43	174	87	-0.18870224003797
43	176	88	-0.022411821825515
43	178	89	0.054291663461978
43	180	90	0.074401787349092
43	182	91	-0.058990511759723
43	184	92	0.24995043972958
43	186	93	-0.19585877674225
43	188	94	-0.089547839763846
43	190	95	-0.060353843087
43	192	96	0.0032831409092694
43	194	97	0.13897181010191
43	196	98	-0.058146252363143
43	198	99	0.064083970355041
43	200	100	-0.096025126843383
42	86	43	0.096574552270475
42	88	44	0.26428742270493
42	90	45	0.18376711808965
42	92	46	0.24214626923037
42	94	47	0.080306372261244
42	96	48	0.14131118699983
42	98	49	0.23741994314764
42	100	50	0.24603705062095
42	102	51	0.13345877085709
42	104	52	0.33233394112822
42	106	53	0.15753880538854
42	108	54	0.14673091391136
42	110	55	0.28436649182413
42	112	56	0.11025356092844
42	114	57	0.21682183071457
42	116	58	0.16032846480653
42	118	59	0.22141541508196
42	120	60	0.20526479592755
42	122	61	0.19831445027676
42	124	62	0.16946644560744
42	126	63	0.19777023075303
42	128	64	0.20213008590025
42	130	65	0.17588533835568
42	132	66	0.39848472055815
42	134	67	0.18330521306382
42	136	68	0.22230894138933
42	138	69	0.10712199545474
42	140	70	0.33121349245166
42	142	71	0.088600108898951
42	144	72	0.18522104186929
42	146	73	0.24414524291431
42	148	74	0.13208731897229
42	150	75	0.1443501160628
42	152	76	0.13339484728861
42	154	77	0.19239073793604
42	156	78	0.39106979810689
42	158	79	0.25814165879008
42	160	80	0.33078558524131
42	162	81	0.048458671202971
42	164	82	0.20561765281833
42	166	83	0.20586392147544
42	168	84	0.24038758560805
42	170	85	0.14218571181641
42	172	86	0.34693205592567
42	174	87	0.1582298158877
42	176	88	0.13581799406219
42	178	89	0.19010965752417
42	180	90	0.26451144487326
42	182	91	0.20552093311353
42	184	92	0.45547137284311
42	186	93	0.25961259610087
42	188	94	0.17006475633702
42	190	95	0.10971091325002
42	192	96	0.11299405415929
42	194	97	0.2519658642612
42	196	98	0.19381961189805
42	198	99	0.25790358225309
42	200	100	0.16187845540971
41	84	42	76.65
41	86	43	76.65
41	88	44	76.65
41	90	45	76.65
41	92	46	76.65
41	94	47	76.65
41	96	48	76.65
41	98	49	76.65
41	100	50	76.65
41	102	51	76.65
41	104	52	76.65
41	106	53	76.65
41	108	54	76.65
41	110	55	76.65
41	112	56	76.65
41	114	57	76.65
41	116	58	76.65
41	118	59	76.65
41	120	60	76.65
41	122	61	76.65
41	124	62	76.65
41	126	63	76.65
41	128	64	76.65
41	130	65	76.65
41	132	66	76.65
41	134	67	76.65
41	136	68	76.65
41	138	69	76.65
41	140	70	76.65
41	142	71	76.65
41	144	72	76.65
41	146	73	76.65
41	148	74	76.65
41	150	75	76.65
41	152	76	76.65
41	154	77	76.65
41	156	78	76.65
41	158	79	76.65
41	160	80	76.65
41	162	81	76.65
41	164	82	76.65
41	166	83	76.65
41	168	84	76.65
41	170	85	76.65
41	172	86	76.65
41	174	87	76.65
41	176	88	76.65
41	178	89	76.65
41	180	90	76.65
41	182	91	76.65
41	184	92	76.65
41	186	93	76.65
41	188	94	76.65
41	190	95	76.65
41	192	96	76.65
41	194	97	76.65
41	196	98	76.65
41	198	99	76.65
41	200	100	76.65
40	84	42	27.6
40	86	43	27.6
40	88	44	27.69657455227
40	90	45	27.960861974975
40	92	46	28.144629093065
40	94	47	28.386775362295
40	96	48	28.467081734557
40	98	49	28.608392921557
40	100	50	28.845812864704
40	102	51	29.091849915325
40	104	52	29.225308686182
40	106	53	29.55764262731
40	108	54	29.715181432699
40	110	55	29.86191234661
40	112	56	30.146278838434
40	114	57	30.256532399363
40	116	58	30.473354230077
40	118	59	30.633682694884
40	120	60	30.855098109966
40	122	61	31.060362905893
40	124	62	31.25867735617
40	126	63	31.428143801778
40	128	64	31.625914032531
40	130	65	31.828044118431
40	132	66	32.003929456787
40	134	67	32.402414177345
40	136	68	32.585719390409
40	138	69	32.808028331798
40	140	70	32.915150327253
40	142	71	33.246363819704
40	144	72	33.334963928603
40	146	73	33.520184970473
40	148	74	33.764330213387
40	150	75	33.896417532359
40	152	76	34.040767648422
40	154	77	34.174162495711
40	156	78	34.366553233647
40	158	79	34.757623031754
40	160	80	35.015764690544
40	162	81	35.346550275785
40	164	82	35.395008946988
40	166	83	35.600626599806
40	168	84	35.806490521282
40	170	85	36.04687810689
40	172	86	36.189063818706
40	174	87	36.535995874632
40	176	88	36.694225690519
40	178	89	36.830043684582
40	180	90	37.020153342106
40	182	91	37.284664786979
40	184	92	37.490185720093
40	186	93	37.945657092936
40	188	94	38.205269689037
40	190	95	38.375334445374
40	192	96	38.485045358624
40	194	97	38.598039412783
40	196	98	38.850005277044
40	198	99	39.043824888942
40	200	100	39.301728471195
49	140	70	0.973
49	142	71	1.1263147871461
49	144	72	1.1264210753023
49	146	73	0.973
49	148	74	1.1191841078756
49	150	75	1.1180805326644
49	152	76	1.1196543360032
49	154	77	1.1126920263669
49	156	78	1.1238206737244
49	158	79	1.1222974443624
49	160	80	1.1252569910486
49	162	81	1.1662040915777
49	164	82	0.973
49	166	83	1.1202098568218
49	168	84	1.1351358117044
49	170	85	0.973
49	172	86	1.1203675561057
49	174	87	1.1474322721923
49	176	88	0.973
49	178	89	1.1147176933612
49	180	90	1.1195190314413
49	182	91	1.1255358965302
49	184	92	1.1276781170987
49	186	93	1.1244904849592
49	188	94	1.134148330497
49	190	95	0.973
49	192	96	0.973
49	194	97	1.1136209194448
49	196	98	1.1392515614375
49	198	99	0.973
49	200	100	1.1226599570309
48	140	70	-0.1192474649856
48	142	71	0.1310295480772
48	144	72	0.058748461916876
48	146	73	-0.10197522907906
48	148	74	0.015515402461959
48	150	75	-0.004941460372326
48	152	76	0.014695190696187
48	154	77	-0.087388579879041
48	156	78	0.095141749299737
48	158	79	0.028725803905109
48	160	80	0.0403133755336
48	162	81	0.25219903219893
48	164	82	-0.47379690155587
48	166	83	0.099664775873551
48	168	84	0.15354703857786
48	170	85	-0.14201055816807
48	172	86	0.032253466243697
48	174	87	0.20152785463323
48	176	88	-0.23732067694152
48	178	89	-0.032523065117879
48	180	90	0.044599264095765
48	182	91	0.073863261946154
48	184	92	0.053690760250357
48	186	93	0.0046284370820225
48	188	94	0.07308356697325
48	190	95	-0.13268904985278
48	192	96	-0.15129848048074
48	194	97	-0.0054733308005177
48	196	98	0.21509507399654
48	198	99	-0.13890092899351
48	200	100	0.053615506157543
47	138	69	0.19260757373997
47	140	70	0.073360108754373
47	142	71	0.20438965683157
47	144	72	0.26313811874845
47	146	73	0.16116288966938
47	148	74	0.17667829213134
47	150	75	0.17173683175902
47	152	76	0.1864320224552
47	154	77	0.099043442576164
47	156	78	0.1941851918759
47	158	79	0.22291099578101
47	160	80	0.26322437131461
47	162	81	0.51542340351354
47	164	82	0.041626501957679
47	166	83	0.14129127783123
47	168	84	0.29483831640908
47	170	85	0.15282775824102
47	172	86	0.18508122448471
47	174	87	0.38660907911795
47	176	88	0.14928840217643
47	178	89	0.11676533705855
47	180	90	0.16136460115432
47	182	91	0.23522786310047
47	184	92	0.28891862335083
47	186	93	0.29354706043285
47	188	94	0.3666306274061
47	190	95	0.23394157755332
47	192	96	0.082643097072578
47	194	97	0.07716976627206
47	196	98	0.2922648402686
47	198	99	0.15336391127509
47	200	100	0.20697941743263
46	136	68	76.65
46	138	69	76.65
46	140	70	76.65
46	142	71	76.65
46	144	72	76.65
46	146	73	76.65
46	148	74	76.65
46	150	75	76.65
46	152	76	76.65
46	154	77	76.65
46	156	78	76.65
46	158	79	76.65
46	160	80	76.65
46	162	81	76.65
46	164	82	76.65
46	166	83	76.65
46	168	84	76.65
46	170	85	76.65
46	172	86	76.65
46	174	87	76.65
46	176	88	76.65
46	178	89	76.65
46	180	90	76.65
46	182	91	76.65
46	184	92	76.65
46	186	93	76.65
46	188	94	76.65
46	190	95	76.65
46	192	96	76.65
46	194	97	76.65
46	196	98	76.65
46	198	99	76.65
46	200	100	76.65
45	136	68	27.6
45	138	69	27.6
45	140	70	27.79260757374
45	142	71	27.865967682494
45	144	72	28.070357339326
45	146	73	28.333495458074
45	148	74	28.494658347744
45	150	75	28.671336639875
45	152	76	28.843073471634
45	154	77	29.029505494089
45	156	78	29.128548936665
45	158	79	29.322734128541
45	160	80	29.545645124322
45	162	81	29.808869495637
45	164	82	30.324292899151
45	166	83	30.365919401108
45	168	84	30.507210678939
45	170	85	30.802048995349
45	172	86	30.95487675359
45	174	87	31.139957978074
45	176	88	31.526567057192
45	178	89	31.675855459369
45	180	90	31.792620796427
45	182	91	31.953985397582
45	184	92	32.189213260682
45	186	93	32.478131884033
45	188	94	32.771678944466
45	190	95	33.138309571872
45	192	96	33.372251149425
45	194	97	33.454894246498
45	196	98	33.53206401277
45	198	99	33.824328853038
45	200	100	33.977692764313

