version 2
run General-68-20200211-12:45:08-39082
attr configname General
attr datetime 20200211-12:45:08
attr experiment General
attr inifile omnetpp.ini
attr iterationvars $0=68
attr iterationvarsf 68-
attr measurement $0=68
attr network scenario
attr processid 39082
attr repetition 0
attr replication #0
attr resultdir veins-runall-output
attr runnumber 68
attr seedset 68
param *.playgroundSizeX 10672m
param *.playgroundSizeY 7105m
param *.playgroundSizeZ 10000m
param *.annotations.draw false
param *.world.useTorus false
param *.world.use2D false
param *.manager.updateInterval 1s
param *.manager.host "\"localhost\""
param *.manager.port 9999
param *.manager.moduleType "\"org.car2x.veins.nodes.Car\""
param *.manager.moduleName "\"node\""
param *.manager.moduleDisplayString "\"\""
param *.manager.autoShutdown true
param *.manager.margin 25
param *.manager.launchConfig "xmldoc(\"sumo-launchd.launch.xml\")"
param *.manager.trafficLightModuleType "\"org.car2x.veins.nodes.TrafficLight\""
param *.manager.trafficLightModuleName "\"trafficLight\""
param *.manager.trafficLightModuleDisplayString default
param *.manager.trafficLightFilter "\"10\""
param *.manager.ignoreGuiCommands true
param *.trafficLight[*].mobility.x 0
param *.trafficLight[*].mobility.y 0
param *.trafficLight[*].mobility.z 3
param *.trafficLight[*].applType "\"org.car2x.veins.subprojects.veins_testsims.traci.TraCITrafficLightApp\""
param *.trafficLight[*].logicType "\"org.car2x.veins.subprojects.veins_testsims.traci.TraCITrafficLightTestLogic\""
param *.trafficLight[*].appl.headerLength "80 bit"
param *.trafficLight[*].appl.sendBeacons false
param *.trafficLight[*].appl.dataOnSch true
param *.connectionManager.sendDirect true
param *.connectionManager.maxInterfDist 2600m
param *.connectionManager.drawMaxIntfDist false
param *.**.nic.mac1609_4.useServiceChannel false
param *.**.nic.mac1609_4.txPower 20mW
param *.**.nic.mac1609_4.bitrate 18Mbps
param *.**.nic.phy80211p.minPowerLevel -110dBm
param *.**.nic.phy80211p.useNoiseFloor true
param *.**.nic.phy80211p.noiseFloor -98dBm
param *.**.nic.phy80211p.decider "xmldoc(\"config.xml\")"
param *.**.nic.phy80211p.analogueModels "xmldoc(\"config.xml\")"
param *.**.nic.phy80211p.usePropagationDelay true
param *.node[*].applType "\"org.car2x.veins.subprojects.veins_testsims.traci.TraCITestApp\""
param *.node[0].appl.testNumber 68
param *.node[*].appl.testNumber -1
param *.node[*].veinsmobilityType "\"org.car2x.veins.modules.mobility.traci.TraCIMobility\""
param *.node[*].veinsmobility.x 0
param *.node[*].veinsmobility.y 0
param *.node[*].veinsmobility.z 1.895
param *.node[*].veinsmobility.accidentCount 0
param *.node[*].veinsmobility.setHostSpeed true

scalar scenario.node[0].nic.phy80211p busyTime 0
scalar scenario.node[0].nic.mac1609_4 ReceivedUnicastPackets 0
scalar scenario.node[0].nic.mac1609_4 ReceivedBroadcasts 0
scalar scenario.node[0].nic.mac1609_4 SentPackets 0
scalar scenario.node[0].nic.mac1609_4 SentAcknowledgements 0
scalar scenario.node[0].nic.mac1609_4 SNIRLostPackets 0
scalar scenario.node[0].nic.mac1609_4 RXTXLostPackets 0
scalar scenario.node[0].nic.mac1609_4 TotalLostPackets 0
scalar scenario.node[0].nic.mac1609_4 DroppedPacketsInMac 0
scalar scenario.node[0].nic.mac1609_4 TooLittleTime 0
scalar scenario.node[0].nic.mac1609_4 TimesIntoBackoff 0
scalar scenario.node[0].nic.mac1609_4 SlotsBackoff 0
scalar scenario.node[0].nic.mac1609_4 NumInternalContention 0
scalar scenario.node[0].nic.mac1609_4 totalBusyTime 0
scalar scenario.node[0].veinsmobility startTime 1
scalar scenario.node[0].veinsmobility totalTime 99
scalar scenario.node[0].veinsmobility stopTime 100
scalar scenario.node[0].veinsmobility minSpeed 0
scalar scenario.node[0].veinsmobility maxSpeed 30.943962679913
scalar scenario.node[0].veinsmobility totalDistance 291.64896003838
scalar scenario.node[0].veinsmobility totalCO2Emission 132.17870836191
scalar scenario.node[1].nic.phy80211p busyTime 0
scalar scenario.node[1].nic.mac1609_4 ReceivedUnicastPackets 0
scalar scenario.node[1].nic.mac1609_4 ReceivedBroadcasts 0
scalar scenario.node[1].nic.mac1609_4 SentPackets 0
scalar scenario.node[1].nic.mac1609_4 SentAcknowledgements 0
scalar scenario.node[1].nic.mac1609_4 SNIRLostPackets 0
scalar scenario.node[1].nic.mac1609_4 RXTXLostPackets 0
scalar scenario.node[1].nic.mac1609_4 TotalLostPackets 0
scalar scenario.node[1].nic.mac1609_4 DroppedPacketsInMac 0
scalar scenario.node[1].nic.mac1609_4 TooLittleTime 0
scalar scenario.node[1].nic.mac1609_4 TimesIntoBackoff 0
scalar scenario.node[1].nic.mac1609_4 SlotsBackoff 0
scalar scenario.node[1].nic.mac1609_4 NumInternalContention 0
scalar scenario.node[1].nic.mac1609_4 totalBusyTime 0
scalar scenario.node[1].veinsmobility startTime 6
scalar scenario.node[1].veinsmobility totalTime 94
scalar scenario.node[1].veinsmobility stopTime 100
scalar scenario.node[1].veinsmobility minSpeed 0
scalar scenario.node[1].veinsmobility maxSpeed 29.073030554967
scalar scenario.node[1].veinsmobility totalDistance 286.64795676564
scalar scenario.node[1].veinsmobility totalCO2Emission 122.38562356163
scalar scenario.node[2].nic.phy80211p busyTime 0
scalar scenario.node[2].nic.mac1609_4 ReceivedUnicastPackets 0
scalar scenario.node[2].nic.mac1609_4 ReceivedBroadcasts 0
scalar scenario.node[2].nic.mac1609_4 SentPackets 0
scalar scenario.node[2].nic.mac1609_4 SentAcknowledgements 0
scalar scenario.node[2].nic.mac1609_4 SNIRLostPackets 0
scalar scenario.node[2].nic.mac1609_4 RXTXLostPackets 0
scalar scenario.node[2].nic.mac1609_4 TotalLostPackets 0
scalar scenario.node[2].nic.mac1609_4 DroppedPacketsInMac 0
scalar scenario.node[2].nic.mac1609_4 TooLittleTime 0
scalar scenario.node[2].nic.mac1609_4 TimesIntoBackoff 0
scalar scenario.node[2].nic.mac1609_4 SlotsBackoff 0
scalar scenario.node[2].nic.mac1609_4 NumInternalContention 0
scalar scenario.node[2].nic.mac1609_4 totalBusyTime 0
scalar scenario.node[2].veinsmobility startTime 11
scalar scenario.node[2].veinsmobility totalTime 89
scalar scenario.node[2].veinsmobility stopTime 100
scalar scenario.node[2].veinsmobility minSpeed 0
scalar scenario.node[2].veinsmobility maxSpeed 28.355952789743
scalar scenario.node[2].veinsmobility totalDistance 281.64693961481
scalar scenario.node[2].veinsmobility totalCO2Emission 116.07150132553
scalar scenario.node[3].nic.phy80211p busyTime 0
scalar scenario.node[3].nic.mac1609_4 ReceivedUnicastPackets 0
scalar scenario.node[3].nic.mac1609_4 ReceivedBroadcasts 0
scalar scenario.node[3].nic.mac1609_4 SentPackets 0
scalar scenario.node[3].nic.mac1609_4 SentAcknowledgements 0
scalar scenario.node[3].nic.mac1609_4 SNIRLostPackets 0
scalar scenario.node[3].nic.mac1609_4 RXTXLostPackets 0
scalar scenario.node[3].nic.mac1609_4 TotalLostPackets 0
scalar scenario.node[3].nic.mac1609_4 DroppedPacketsInMac 0
scalar scenario.node[3].nic.mac1609_4 TooLittleTime 0
scalar scenario.node[3].nic.mac1609_4 TimesIntoBackoff 0
scalar scenario.node[3].nic.mac1609_4 SlotsBackoff 0
scalar scenario.node[3].nic.mac1609_4 NumInternalContention 0
scalar scenario.node[3].nic.mac1609_4 totalBusyTime 0
scalar scenario.node[3].veinsmobility startTime 16
scalar scenario.node[3].veinsmobility totalTime 84
scalar scenario.node[3].veinsmobility stopTime 100
scalar scenario.node[3].veinsmobility minSpeed 0
scalar scenario.node[3].veinsmobility maxSpeed 28.054148793062
scalar scenario.node[3].veinsmobility totalDistance 276.64593934069
scalar scenario.node[3].veinsmobility totalCO2Emission 112.23689933833
scalar scenario.node[4].nic.phy80211p busyTime 0
scalar scenario.node[4].nic.mac1609_4 ReceivedUnicastPackets 0
scalar scenario.node[4].nic.mac1609_4 ReceivedBroadcasts 0
scalar scenario.node[4].nic.mac1609_4 SentPackets 0
scalar scenario.node[4].nic.mac1609_4 SentAcknowledgements 0
scalar scenario.node[4].nic.mac1609_4 SNIRLostPackets 0
scalar scenario.node[4].nic.mac1609_4 RXTXLostPackets 0
scalar scenario.node[4].nic.mac1609_4 TotalLostPackets 0
scalar scenario.node[4].nic.mac1609_4 DroppedPacketsInMac 0
scalar scenario.node[4].nic.mac1609_4 TooLittleTime 0
scalar scenario.node[4].nic.mac1609_4 TimesIntoBackoff 0
scalar scenario.node[4].nic.mac1609_4 SlotsBackoff 0
scalar scenario.node[4].nic.mac1609_4 NumInternalContention 0
scalar scenario.node[4].nic.mac1609_4 totalBusyTime 0
scalar scenario.node[4].veinsmobility startTime 21
scalar scenario.node[4].veinsmobility totalTime 79
scalar scenario.node[4].veinsmobility stopTime 100
scalar scenario.node[4].veinsmobility minSpeed 0
scalar scenario.node[4].veinsmobility maxSpeed 24.136218908919
scalar scenario.node[4].veinsmobility totalDistance 271.64493544988
scalar scenario.node[4].veinsmobility totalCO2Emission 101.66500746854
scalar scenario.node[5].nic.phy80211p busyTime 0
scalar scenario.node[5].nic.mac1609_4 ReceivedUnicastPackets 0
scalar scenario.node[5].nic.mac1609_4 ReceivedBroadcasts 0
scalar scenario.node[5].nic.mac1609_4 SentPackets 0
scalar scenario.node[5].nic.mac1609_4 SentAcknowledgements 0
scalar scenario.node[5].nic.mac1609_4 SNIRLostPackets 0
scalar scenario.node[5].nic.mac1609_4 RXTXLostPackets 0
scalar scenario.node[5].nic.mac1609_4 TotalLostPackets 0
scalar scenario.node[5].nic.mac1609_4 DroppedPacketsInMac 0
scalar scenario.node[5].nic.mac1609_4 TooLittleTime 0
scalar scenario.node[5].nic.mac1609_4 TimesIntoBackoff 0
scalar scenario.node[5].nic.mac1609_4 SlotsBackoff 0
scalar scenario.node[5].nic.mac1609_4 NumInternalContention 0
scalar scenario.node[5].nic.mac1609_4 totalBusyTime 0
scalar scenario.node[5].veinsmobility startTime 26
scalar scenario.node[5].veinsmobility totalTime 74
scalar scenario.node[5].veinsmobility stopTime 100
scalar scenario.node[5].veinsmobility minSpeed 0
scalar scenario.node[5].veinsmobility maxSpeed 31.862344438425
scalar scenario.node[5].veinsmobility totalDistance 266.64391112388
scalar scenario.node[5].veinsmobility totalCO2Emission 94.279722517769
scalar scenario.node[6].nic.phy80211p busyTime 0
scalar scenario.node[6].nic.mac1609_4 ReceivedUnicastPackets 0
scalar scenario.node[6].nic.mac1609_4 ReceivedBroadcasts 0
scalar scenario.node[6].nic.mac1609_4 SentPackets 0
scalar scenario.node[6].nic.mac1609_4 SentAcknowledgements 0
scalar scenario.node[6].nic.mac1609_4 SNIRLostPackets 0
scalar scenario.node[6].nic.mac1609_4 RXTXLostPackets 0
scalar scenario.node[6].nic.mac1609_4 TotalLostPackets 0
scalar scenario.node[6].nic.mac1609_4 DroppedPacketsInMac 0
scalar scenario.node[6].nic.mac1609_4 TooLittleTime 0
scalar scenario.node[6].nic.mac1609_4 TimesIntoBackoff 0
scalar scenario.node[6].nic.mac1609_4 SlotsBackoff 0
scalar scenario.node[6].nic.mac1609_4 NumInternalContention 0
scalar scenario.node[6].nic.mac1609_4 totalBusyTime 0
scalar scenario.node[6].veinsmobility startTime 31
scalar scenario.node[6].veinsmobility totalTime 69
scalar scenario.node[6].veinsmobility stopTime 100
scalar scenario.node[6].veinsmobility minSpeed 0
scalar scenario.node[6].veinsmobility maxSpeed 26.061648822758
scalar scenario.node[6].veinsmobility totalDistance 261.64288611944
scalar scenario.node[6].veinsmobility totalCO2Emission 97.870398054514
scalar scenario.node[7].nic.phy80211p busyTime 0
scalar scenario.node[7].nic.mac1609_4 ReceivedUnicastPackets 0
scalar scenario.node[7].nic.mac1609_4 ReceivedBroadcasts 0
scalar scenario.node[7].nic.mac1609_4 SentPackets 0
scalar scenario.node[7].nic.mac1609_4 SentAcknowledgements 0
scalar scenario.node[7].nic.mac1609_4 SNIRLostPackets 0
scalar scenario.node[7].nic.mac1609_4 RXTXLostPackets 0
scalar scenario.node[7].nic.mac1609_4 TotalLostPackets 0
scalar scenario.node[7].nic.mac1609_4 DroppedPacketsInMac 0
scalar scenario.node[7].nic.mac1609_4 TooLittleTime 0
scalar scenario.node[7].nic.mac1609_4 TimesIntoBackoff 0
scalar scenario.node[7].nic.mac1609_4 SlotsBackoff 0
scalar scenario.node[7].nic.mac1609_4 NumInternalContention 0
scalar scenario.node[7].nic.mac1609_4 totalBusyTime 0
scalar scenario.node[7].veinsmobility startTime 36
scalar scenario.node[7].veinsmobility totalTime 64
scalar scenario.node[7].veinsmobility stopTime 100
scalar scenario.node[7].veinsmobility minSpeed 0
scalar scenario.node[7].veinsmobility maxSpeed 21.221874552785
scalar scenario.node[7].veinsmobility totalDistance 256.64186077232
scalar scenario.node[7].veinsmobility totalCO2Emission 81.42072486015
scalar scenario.node[8].nic.phy80211p busyTime 0
scalar scenario.node[8].nic.mac1609_4 ReceivedUnicastPackets 0
scalar scenario.node[8].nic.mac1609_4 ReceivedBroadcasts 0
scalar scenario.node[8].nic.mac1609_4 SentPackets 0
scalar scenario.node[8].nic.mac1609_4 SentAcknowledgements 0
scalar scenario.node[8].nic.mac1609_4 SNIRLostPackets 0
scalar scenario.node[8].nic.mac1609_4 RXTXLostPackets 0
scalar scenario.node[8].nic.mac1609_4 TotalLostPackets 0
scalar scenario.node[8].nic.mac1609_4 DroppedPacketsInMac 0
scalar scenario.node[8].nic.mac1609_4 TooLittleTime 0
scalar scenario.node[8].nic.mac1609_4 TimesIntoBackoff 0
scalar scenario.node[8].nic.mac1609_4 SlotsBackoff 0
scalar scenario.node[8].nic.mac1609_4 NumInternalContention 0
scalar scenario.node[8].nic.mac1609_4 totalBusyTime 0
scalar scenario.node[8].veinsmobility startTime 41
scalar scenario.node[8].veinsmobility totalTime 59
scalar scenario.node[8].veinsmobility stopTime 100
scalar scenario.node[8].veinsmobility minSpeed 0
scalar scenario.node[8].veinsmobility maxSpeed 29.026609271487
scalar scenario.node[8].veinsmobility totalDistance 251.64080047887
scalar scenario.node[8].veinsmobility totalCO2Emission 79.50381742088
scalar scenario.node[9].nic.phy80211p busyTime 0
scalar scenario.node[9].nic.mac1609_4 ReceivedUnicastPackets 0
scalar scenario.node[9].nic.mac1609_4 ReceivedBroadcasts 0
scalar scenario.node[9].nic.mac1609_4 SentPackets 0
scalar scenario.node[9].nic.mac1609_4 SentAcknowledgements 0
scalar scenario.node[9].nic.mac1609_4 SNIRLostPackets 0
scalar scenario.node[9].nic.mac1609_4 RXTXLostPackets 0
scalar scenario.node[9].nic.mac1609_4 TotalLostPackets 0
scalar scenario.node[9].nic.mac1609_4 DroppedPacketsInMac 0
scalar scenario.node[9].nic.mac1609_4 TooLittleTime 0
scalar scenario.node[9].nic.mac1609_4 TimesIntoBackoff 0
scalar scenario.node[9].nic.mac1609_4 SlotsBackoff 0
scalar scenario.node[9].nic.mac1609_4 NumInternalContention 0
scalar scenario.node[9].nic.mac1609_4 totalBusyTime 0
scalar scenario.node[9].veinsmobility startTime 46
scalar scenario.node[9].veinsmobility totalTime 54
scalar scenario.node[9].veinsmobility stopTime 100
scalar scenario.node[9].veinsmobility minSpeed 0
scalar scenario.node[9].veinsmobility maxSpeed 35.130481347535
scalar scenario.node[9].veinsmobility totalDistance 246.63976803502
scalar scenario.node[9].veinsmobility totalCO2Emission 74.162563822064
scalar scenario.manager roiArea 0
scalar scenario.trafficLight[0].appl generatedWSMs 0
scalar scenario.trafficLight[0].appl receivedWSMs 0
scalar scenario.trafficLight[0].appl generatedBSMs 0
scalar scenario.trafficLight[0].appl receivedBSMs 0
scalar scenario.trafficLight[0].appl generatedWSAs 0
scalar scenario.trafficLight[0].appl receivedWSAs 0
scalar scenario.trafficLight[0].nic.phy80211p busyTime 0
scalar scenario.trafficLight[0].nic.mac1609_4 ReceivedUnicastPackets 0
scalar scenario.trafficLight[0].nic.mac1609_4 ReceivedBroadcasts 0
scalar scenario.trafficLight[0].nic.mac1609_4 SentPackets 0
scalar scenario.trafficLight[0].nic.mac1609_4 SentAcknowledgements 0
scalar scenario.trafficLight[0].nic.mac1609_4 SNIRLostPackets 0
scalar scenario.trafficLight[0].nic.mac1609_4 RXTXLostPackets 0
scalar scenario.trafficLight[0].nic.mac1609_4 TotalLostPackets 0
scalar scenario.trafficLight[0].nic.mac1609_4 DroppedPacketsInMac 0
scalar scenario.trafficLight[0].nic.mac1609_4 TooLittleTime 0
scalar scenario.trafficLight[0].nic.mac1609_4 TimesIntoBackoff 0
scalar scenario.trafficLight[0].nic.mac1609_4 SlotsBackoff 0
scalar scenario.trafficLight[0].nic.mac1609_4 NumInternalContention 0
scalar scenario.trafficLight[0].nic.mac1609_4 totalBusyTime 0

