version 2
run General-67-20200211-12:45:08-39082
attr configname General
attr datetime 20200211-12:45:08
attr experiment General
attr inifile omnetpp.ini
attr iterationvars $0=67
attr iterationvarsf 67-
attr measurement $0=67
attr network scenario
attr processid 39082
attr repetition 0
attr replication #0
attr resultdir veins-runall-output
attr runnumber 67
attr seedset 67
param *.playgroundSizeX 10672m
param *.playgroundSizeY 7105m
param *.playgroundSizeZ 10000m
param *.annotations.draw false
param *.world.useTorus false
param *.world.use2D false
param *.manager.updateInterval 1s
param *.manager.host "\"localhost\""
param *.manager.port 9999
param *.manager.moduleType "\"org.car2x.veins.nodes.Car\""
param *.manager.moduleName "\"node\""
param *.manager.moduleDisplayString "\"\""
param *.manager.autoShutdown true
param *.manager.margin 25
param *.manager.launchConfig "xmldoc(\"sumo-launchd.launch.xml\")"
param *.manager.trafficLightModuleType "\"org.car2x.veins.nodes.TrafficLight\""
param *.manager.trafficLightModuleName "\"trafficLight\""
param *.manager.trafficLightModuleDisplayString default
param *.manager.trafficLightFilter "\"10\""
param *.manager.ignoreGuiCommands true
param *.trafficLight[*].mobility.x 0
param *.trafficLight[*].mobility.y 0
param *.trafficLight[*].mobility.z 3
param *.trafficLight[*].applType "\"org.car2x.veins.subprojects.veins_testsims.traci.TraCITrafficLightApp\""
param *.trafficLight[*].logicType "\"org.car2x.veins.subprojects.veins_testsims.traci.TraCITrafficLightTestLogic\""
param *.trafficLight[*].appl.headerLength "80 bit"
param *.trafficLight[*].appl.sendBeacons false
param *.trafficLight[*].appl.dataOnSch true
param *.connectionManager.sendDirect true
param *.connectionManager.maxInterfDist 2600m
param *.connectionManager.drawMaxIntfDist false
param *.**.nic.mac1609_4.useServiceChannel false
param *.**.nic.mac1609_4.txPower 20mW
param *.**.nic.mac1609_4.bitrate 18Mbps
param *.**.nic.phy80211p.minPowerLevel -110dBm
param *.**.nic.phy80211p.useNoiseFloor true
param *.**.nic.phy80211p.noiseFloor -98dBm
param *.**.nic.phy80211p.decider "xmldoc(\"config.xml\")"
param *.**.nic.phy80211p.analogueModels "xmldoc(\"config.xml\")"
param *.**.nic.phy80211p.usePropagationDelay true
param *.node[*].applType "\"org.car2x.veins.subprojects.veins_testsims.traci.TraCITestApp\""
param *.node[0].appl.testNumber 67
param *.node[*].appl.testNumber -1
param *.node[*].veinsmobilityType "\"org.car2x.veins.modules.mobility.traci.TraCIMobility\""
param *.node[*].veinsmobility.x 0
param *.node[*].veinsmobility.y 0
param *.node[*].veinsmobility.z 1.895
param *.node[*].veinsmobility.accidentCount 0
param *.node[*].veinsmobility.setHostSpeed true

vector 0 scenario.node[0].veinsmobility posx ETV
vector 1 scenario.node[0].veinsmobility posy ETV
vector 2 scenario.node[0].veinsmobility speed ETV
vector 3 scenario.node[0].veinsmobility acceleration ETV
vector 4 scenario.node[0].veinsmobility co2emission ETV
vector 5 scenario.node[1].veinsmobility posx ETV
vector 6 scenario.node[1].veinsmobility posy ETV
vector 7 scenario.node[1].veinsmobility speed ETV
vector 8 scenario.node[1].veinsmobility acceleration ETV
vector 9 scenario.node[1].veinsmobility co2emission ETV
vector 10 scenario.node[2].veinsmobility posx ETV
vector 11 scenario.node[2].veinsmobility posy ETV
vector 12 scenario.node[2].veinsmobility speed ETV
vector 13 scenario.node[2].veinsmobility acceleration ETV
vector 14 scenario.node[2].veinsmobility co2emission ETV
vector 15 scenario.node[3].veinsmobility posx ETV
vector 16 scenario.node[3].veinsmobility posy ETV
vector 17 scenario.node[3].veinsmobility speed ETV
vector 18 scenario.node[3].veinsmobility acceleration ETV
vector 19 scenario.node[3].veinsmobility co2emission ETV
vector 20 scenario.node[4].veinsmobility posx ETV
vector 21 scenario.node[4].veinsmobility posy ETV
vector 22 scenario.node[4].veinsmobility speed ETV
vector 23 scenario.node[4].veinsmobility acceleration ETV
vector 24 scenario.node[4].veinsmobility co2emission ETV
vector 25 scenario.node[5].veinsmobility posx ETV
vector 26 scenario.node[5].veinsmobility posy ETV
vector 27 scenario.node[5].veinsmobility speed ETV
vector 28 scenario.node[5].veinsmobility acceleration ETV
vector 29 scenario.node[5].veinsmobility co2emission ETV
vector 30 scenario.node[6].veinsmobility posx ETV
vector 31 scenario.node[6].veinsmobility posy ETV
vector 32 scenario.node[6].veinsmobility speed ETV
vector 33 scenario.node[6].veinsmobility acceleration ETV
vector 34 scenario.node[6].veinsmobility co2emission ETV
vector 35 scenario.node[7].veinsmobility posx ETV
vector 36 scenario.node[7].veinsmobility posy ETV
vector 37 scenario.node[7].veinsmobility speed ETV
4	6	3	9.0549579066719
4	8	4	8.4988778463559
4	10	5	0.046631045706452
4	12	6	1.346729538445
4	17	7	6.8698411864162
4	21	8	6.3845112230278
4	25	9	10.609141425341
4	29	10	-0.62763525208726
4	33	11	9.4819023524904
4	37	12	4.4429678264677
4	41	13	-0.10558168561576
4	45	14	11.802268687823
4	49	15	5.4601311759271
4	53	16	0.92545498520847
4	57	17	5.8794977887355
4	61	18	6.1640655057657
4	65	19	3.4203111609862
4	69	20	10.69111669374
4	73	21	0.973
4	77	22	2.9733256023771
4	81	23	4.3465146531251
4	85	24	11.995564277744
4	89	25	-0.5821653511519
4	93	26	14.75071866116
4	97	27	1.291939627666
4	101	28	3.6257707714849
4	105	29	9.1575941603104
4	109	30	1.9506600438733
4	113	31	1.8459858356143
4	117	32	10.98705410864
4	121	33	4.0683323653584
4	125	34	2.9720182905125
4	129	35	6.1153635486069
4	133	36	2.7343054276622
4	137	37	11.740415573078
3	6	3	0.52293095912319
3	8	4	0.42359790159389
3	10	5	-0.69673392002005
3	12	6	-0.50619142258074
3	17	7	0.25186112383381
3	21	8	0.1763841798529
3	25	9	0.71072384552099
3	29	10	-0.7868874395499
3	33	11	0.57219625858124
3	37	12	-0.10559434723109
3	41	13	-0.71066696522757
3	45	14	0.88155823771376
3	49	15	0.024184075067751
3	53	16	-0.57467688911129
3	57	17	0.10187313426286
3	61	18	0.13466655404773
3	65	19	-0.23182501236442
3	69	20	0.72010953607969
3	73	21	-0.95613441278692
3	77	22	-0.27706848678645
3	81	23	-0.081923894234933
3	85	24	0.92324440763332
3	89	25	-0.77525683294516
3	93	26	1.2576653023716
3	97	27	-0.53113030199893
3	101	28	-0.20612035389058
3	105	29	0.52156763069797
3	109	30	-0.43808835558593
3	113	31	-0.44074191909749
3	117	32	0.77513791888487
3	121	33	-0.15504761959892
3	125	34	-0.29476078238804
3	129	35	0.13075266627129
3	133	36	-0.32156901131384
3	137	37	0.86154521314893
2	4	2	29.997433819196
2	6	3	30.520364778319
2	8	4	30.943962679913
2	10	5	30.247228759893
2	12	6	29.741037337312
2	17	7	29.992898461146
2	21	8	30.169282640999
2	25	9	30.88000648652
2	29	10	30.09311904697
2	33	11	30.665315305551
2	37	12	30.55972095832
2	41	13	29.849053993093
2	45	14	30.730612230806
2	49	15	30.754796305874
2	53	16	30.180119416763
2	57	17	30.281992551026
2	61	18	30.416659105073
2	65	19	30.184834092709
2	69	20	30.904943628789
2	73	21	29.948809216002
2	77	22	29.671740729215
2	81	23	29.58981683498
2	85	24	30.513061242614
2	89	25	29.737804409669
2	93	26	30.99546971204
2	97	27	30.464339410041
2	101	28	30.258219056151
2	105	29	30.779786686849
2	109	30	30.341698331263
2	113	31	29.900956412165
2	117	32	30.67609433105
2	121	33	30.521046711451
2	125	34	30.226285929063
2	129	35	30.357038595334
2	133	36	30.035469584021
2	137	37	30.89701479717
1	2	1	76.65
1	4	2	76.65
1	6	3	76.65
1	8	4	76.65
1	10	5	76.65
1	12	6	76.65
1	17	7	76.65
1	21	8	76.65
1	25	9	76.65
1	29	10	76.65
1	33	11	76.65
1	37	12	76.65
1	41	13	76.65
1	45	14	76.65
1	49	15	76.65
1	53	16	76.65
1	57	17	76.65
1	61	18	76.65
1	65	19	76.65
1	69	20	76.65
1	73	21	76.65
1	77	22	76.65
1	81	23	76.65
1	85	24	76.65
1	89	25	76.65
1	93	26	76.65
1	97	27	76.65
1	101	28	76.65
1	105	29	76.65
1	109	30	76.65
1	113	31	76.65
1	117	32	76.65
1	121	33	76.65
1	125	34	76.65
1	129	35	76.65
1	133	36	76.65
1	137	37	76.65
0	2	1	27.6
0	4	2	27.6
0	6	3	57.597433819196
0	8	4	88.117798597515
0	10	5	119.06176127743
0	12	6	149.30899003732
0	17	7	179.05002737463
0	21	8	209.04292583578
0	25	9	239.21220847678
0	29	10	270.0922149633
0	33	11	300.18533401027
0	37	12	330.85064931582
0	41	13	361.41037027414
0	45	14	391.25942426723
0	49	15	421.99003649804
0	53	16	452.74483280391
0	57	17	482.92495222068
0	61	18	513.2069447717
0	65	19	543.62360387678
0	69	20	573.80843796948
0	73	21	604.71338159827
0	77	22	634.66219081428
0	81	23	664.33393154349
0	85	24	693.92374837847
0	89	25	724.43680962108
0	93	26	754.17461403075
0	97	27	785.17008374279
0	101	28	815.63442315284
0	105	29	845.89264220899
0	109	30	876.67242889583
0	113	31	907.0141272271
0	117	32	936.91508363926
0	121	33	967.59117797031
0	125	34	998.11222468176
0	129	35	1028.3385106108
0	133	36	1058.6955492062
0	137	37	1088.7310187902
vector 38 scenario.node[7].veinsmobility acceleration ETV
vector 39 scenario.node[7].veinsmobility co2emission ETV
vector 40 scenario.node[8].veinsmobility posx ETV
vector 41 scenario.node[8].veinsmobility posy ETV
vector 42 scenario.node[8].veinsmobility speed ETV
vector 43 scenario.node[8].veinsmobility acceleration ETV
vector 44 scenario.node[8].veinsmobility co2emission ETV
9	21	8	0.973
9	25	9	7.571291812718
9	29	10	5.5542453148332
9	33	11	1.4446197809318
9	37	12	8.6315642222256
9	41	13	9.2060826741665
9	45	14	0.973
9	49	15	5.2489198220867
9	53	16	7.1687562163273
9	57	17	0.973
9	61	18	6.9480686769379
9	65	19	8.8579526330423
9	69	20	1.393928211888
9	73	21	8.2398834073704
9	77	22	7.6306723667609
9	81	23	4.4593470779989
9	85	24	4.5196711937101
9	89	25	0.973
9	93	26	10.368813933513
9	97	27	6.5199012956322
9	101	28	5.7030773608943
9	105	29	2.879427740752
9	109	30	0.973
9	113	31	12.713069098051
9	117	32	0.12855600397197
9	121	33	4.6251791918359
9	125	34	9.9320444496715
9	129	35	0.973
9	133	36	4.293712094635
9	137	37	11.022284358618
9	141	38	6.614370101632
9	145	39	5.0961769262865
9	149	40	-0.49542952425149
9	153	41	7.175801898232
9	157	42	6.0071804740946
9	161	43	2.0683739619587
9	165	44	-0.045478732054493
8	21	8	-0.89912858465686
8	25	9	0.44805449608248
8	29	10	0.14435671095271
8	33	11	-0.4477252420038
8	37	12	0.58708500838839
8	41	13	0.63133426685818
8	45	14	-1.0425417660736
8	49	15	0.1067264751764
8	53	16	0.37020253634546
8	57	17	-0.83901198150124
8	61	18	0.36283537116833
8	65	19	0.6079941970529
8	69	20	-0.46267451299354
8	73	21	0.51538926071953
8	77	22	0.40517952258233
8	81	23	-0.0453104210319
8	85	24	-0.035315734567121
8	89	25	-1.1524176645325
8	93	26	0.82356644805986
8	97	27	0.25436424650252
8	101	28	0.13136080303229
8	105	29	-0.26347748260014
8	109	30	-0.91773413890041
8	113	31	1.1354617764009
8	117	32	-0.65231363754719
8	121	33	0.0050356012070552
8	125	34	0.73234529723413
8	129	35	-1.2770192582393
8	133	36	-0.021746827522293
8	137	37	0.91510820807889
8	141	38	0.26532111468259
8	145	39	0.046120784129016
8	149	40	-0.74252155283466
8	153	41	0.36312700272538
8	157	42	0.18530205683783
8	161	43	-0.37131511070766
8	165	44	-0.66896398121025
7	17	7	28.609053899346
7	21	8	27.709925314689
7	25	9	28.157979810772
7	29	10	28.302336521724
7	33	11	27.854611279721
7	37	12	28.441696288109
7	41	13	29.073030554967
7	45	14	28.030488788894
7	49	15	28.13721526407
7	53	16	28.507417800415
7	57	17	27.668405818914
7	61	18	28.031241190083
7	65	19	28.639235387135
7	69	20	28.176560874142
7	73	21	28.691950134861
7	77	22	29.097129657444
7	81	23	29.051819236412
7	85	24	29.016503501845
7	89	25	27.864085837312
7	93	26	28.687652285372
7	97	27	28.942016531875
7	101	28	29.073377334907
7	105	29	28.809899852307
7	109	30	27.892165713406
7	113	31	29.027627489807
7	117	32	28.37531385226
7	121	33	28.380349453467
7	125	34	29.112694750701
7	129	35	27.835675492462
7	133	36	27.81392866494
7	137	37	28.729036873019
7	141	38	28.994357987701
7	145	39	29.04047877183
7	149	40	28.297957218995
7	153	41	28.661084221721
7	157	42	28.846386278559
7	161	43	28.475071167851
7	165	44	27.806107186641
6	12	6	76.65
6	17	7	76.65
6	21	8	76.65
6	25	9	76.65
6	29	10	76.65
6	33	11	76.65
6	37	12	76.65
6	41	13	76.65
6	45	14	76.65
6	49	15	76.65
6	53	16	76.65
6	57	17	76.65
6	61	18	76.65
6	65	19	76.65
6	69	20	76.65
6	73	21	76.65
6	77	22	76.65
6	81	23	76.65
6	85	24	76.65
6	89	25	76.65
6	93	26	76.65
6	97	27	76.65
6	101	28	76.65
6	105	29	76.65
6	109	30	76.65
6	113	31	76.65
6	117	32	76.65
6	121	33	76.65
6	125	34	76.65
6	129	35	76.65
6	133	36	76.65
6	137	37	76.65
6	141	38	76.65
6	145	39	76.65
6	149	40	76.65
6	153	41	76.65
6	157	42	76.65
6	161	43	76.65
6	165	44	76.65
5	12	6	27.6
5	17	7	27.6
5	21	8	56.209053899346
5	25	9	83.918979214035
5	29	10	112.07695902481
5	33	11	140.37929554653
5	37	12	168.23390682625
5	41	13	196.67560311436
5	45	14	225.74863366933
5	49	15	253.77912245822
5	53	16	281.91633772229
5	57	17	310.42375552271
5	61	18	338.09216134162
5	65	19	366.1234025317
5	69	20	394.76263791884
5	73	21	422.93919879298
5	77	22	451.63114892784
5	81	23	480.72827858529
5	85	24	509.7800978217
5	89	25	538.79660132354
5	93	26	566.66068716086
5	97	27	595.34833944623
5	101	28	624.2903559781
5	105	29	653.36373331301
5	109	30	682.17363316532
5	113	31	710.06579887872
5	117	32	739.09342636853
5	121	33	767.46874022079
5	125	34	795.84908967426
5	129	35	824.96178442496
5	133	36	852.79745991742
5	137	37	880.61138858236
5	141	38	909.34042545538
5	145	39	938.33478344308
5	149	40	967.37526221491
5	153	41	995.6732194339
5	157	42	1024.3343036556
5	161	43	1053.1806899342
5	165	44	1081.655761102
vector 45 scenario.node[9].veinsmobility posx ETV
vector 46 scenario.node[9].veinsmobility posy ETV
vector 47 scenario.node[9].veinsmobility speed ETV
vector 48 scenario.node[9].veinsmobility acceleration ETV
vector 49 scenario.node[9].veinsmobility co2emission ETV
14	41	13	0.973
14	45	14	4.3729879805779
14	49	15	8.8381248682011
14	53	16	6.1443901092633
14	57	17	0.15586116913647
14	61	18	6.3080158955641
14	65	19	4.6751250531466
14	69	20	7.0759005603274
14	73	21	0.47102006867537
14	77	22	5.7960442460378
14	81	23	3.3909990412772
14	85	24	3.6091145658986
14	89	25	6.1730644351122
14	93	26	2.5518715447115
14	97	27	6.6825782648109
14	101	28	1.3956135536307
14	105	29	11.453308106654
14	109	30	0.973
14	113	31	9.2614485980119
14	117	32	3.8380167674443
14	121	33	1.1088404374297
14	125	34	13.422414892824
14	129	35	1.1728229662027
14	133	36	7.3091818646709
14	137	37	0.973
14	141	38	11.580728304081
14	145	39	2.6700811360106
14	149	40	6.3832977497972
14	153	41	0.50148117145234
14	157	42	2.4753951387498
14	161	43	11.976162339161
14	165	44	1.1011250748862
14	169	45	7.7812037811748
14	173	46	3.6360046522576
14	177	47	2.2594736756806
14	181	48	6.4123025478834
14	185	49	0.973
14	189	50	4.8699131565925
13	41	13	-1.0121632965747
13	45	14	0.014476087060757
13	49	15	0.6544062285684
13	53	16	0.24133810924832
13	57	17	-0.63323444430716
13	61	18	0.28271973493975
13	65	19	0.036917676916346
13	69	20	0.3756853613304
13	73	21	-0.58749160193838
13	77	22	0.20473181270063
13	81	23	-0.14969052001834
13	85	24	-0.11298538965639
13	89	25	0.26115354057401
13	93	26	-0.27218583819922
13	97	27	0.33413319883402
13	101	28	-0.44422700407449
13	105	29	1.0031779732089
13	109	30	-1.2539594013942
13	113	31	0.7172758692177
13	117	32	-0.087725587072782
13	121	33	-0.48545344825834
13	125	34	1.2768754970748
13	129	35	-0.4926191662671
13	133	36	0.39367909147404
13	137	37	-1.0588856617687
13	141	38	1.0196263769176
13	145	39	-0.27359216858167
13	149	40	0.26116982975509
13	153	41	-0.58744244487025
13	157	42	-0.28479362279177
13	161	43	1.0635402618209
13	165	44	-0.50385496532544
13	169	45	0.45731448428705
13	173	46	-0.14038894081023
13	177	47	-0.33230139012448
13	181	48	0.26833292318042
13	185	49	-1.0898026465438
13	189	50	0.084213377907872
12	37	12	28.185867935272
12	41	13	27.173704638697
12	45	14	27.188180725758
12	49	15	27.842586954326
12	53	16	28.083925063575
12	57	17	27.450690619267
12	61	18	27.733410354207
12	65	19	27.770328031123
12	69	20	28.146013392454
12	73	21	27.558521790515
12	77	22	27.763253603216
12	81	23	27.613563083198
12	85	24	27.500577693541
12	89	25	27.761731234115
12	93	26	27.489545395916
12	97	27	27.82367859475
12	101	28	27.379451590676
12	105	29	28.382629563885
12	109	30	27.12867016249
12	113	31	27.845946031708
12	117	32	27.758220444635
12	121	33	27.272766996377
12	125	34	28.549642493452
12	129	35	28.057023327185
12	133	36	28.450702418659
12	137	37	27.39181675689
12	141	38	28.411443133808
12	145	39	28.137850965226
12	149	40	28.399020794981
12	153	41	27.811578350111
12	157	42	27.526784727319
12	161	43	28.59032498914
12	165	44	28.086470023814
12	169	45	28.543784508101
12	173	46	28.403395567291
12	177	47	28.071094177167
12	181	48	28.339427100347
12	185	49	27.249624453803
12	189	50	27.333837831711
11	33	11	76.65
11	37	12	76.65
11	41	13	76.65
11	45	14	76.65
11	49	15	76.65
11	53	16	76.65
11	57	17	76.65
11	61	18	76.65
11	65	19	76.65
11	69	20	76.65
11	73	21	76.65
11	77	22	76.65
11	81	23	76.65
11	85	24	76.65
11	89	25	76.65
11	93	26	76.65
11	97	27	76.65
11	101	28	76.65
11	105	29	76.65
11	109	30	76.65
11	113	31	76.65
11	117	32	76.65
11	121	33	76.65
11	125	34	76.65
11	129	35	76.65
11	133	36	76.65
11	137	37	76.65
11	141	38	76.65
11	145	39	76.65
11	149	40	76.65
11	153	41	76.65
11	157	42	76.65
11	161	43	76.65
11	165	44	76.65
11	169	45	76.65
11	173	46	76.65
11	177	47	76.65
11	181	48	76.65
11	185	49	76.65
11	189	50	76.65
10	33	11	27.6
10	37	12	27.6
10	41	13	55.785867935272
10	45	14	82.959572573969
10	49	15	110.14775329973
10	53	16	137.99034025405
10	57	17	166.07426531763
10	61	18	193.52495593689
10	65	19	221.2583662911
10	69	20	249.02869432223
10	73	21	277.17470771468
10	77	22	304.73322950519
10	81	23	332.49648310841
10	85	24	360.11004619161
10	89	25	387.61062388515
10	93	26	415.37235511927
10	97	27	442.86190051518
10	101	28	470.68557910993
10	105	29	498.06503070061
10	109	30	526.44766026449
10	113	31	553.57633042698
10	117	32	581.42227645869
10	121	33	609.18049690333
10	125	34	636.4532638997
10	129	35	665.00290639315
10	133	36	693.05992972034
10	137	37	721.510632139
10	141	38	748.90244889589
10	145	39	777.3138920297
10	149	40	805.45174299492
10	153	41	833.8507637899
10	157	42	861.66234214001
10	161	43	889.18912686733
10	165	44	917.77945185647
10	169	45	945.86592188029
10	173	46	974.40970638839
10	177	47	1002.8131019557
10	181	48	1030.8841961328
10	185	49	1059.2236232332
10	189	50	1086.473247687
19	61	18	0.973
19	65	19	8.7656023505817
19	69	20	2.8067614496698
19	73	21	2.4722530214755
19	77	22	6.1995125269225
19	81	23	5.1887010820362
19	85	24	0.57091125970782
19	89	25	4.4369048993526
19	93	26	6.9145395049439
19	97	27	0.38250473711102
19	101	28	5.8641351389334
19	105	29	8.1089315714804
19	109	30	3.0251732716807
19	113	31	5.9013711644349
19	117	32	0.65160827145067
19	121	33	6.7989365759798
19	125	34	1.447709497637
19	129	35	9.7662920073525
19	133	36	2.5682175506951
19	137	37	-0.26314758624878
19	141	38	13.474512201954
19	145	39	0.973
19	149	40	-0.11449957326642
19	153	41	8.1601509392387
19	157	42	9.5297656236652
19	161	43	5.4158125471196
19	165	44	2.3878507627799
19	169	45	0.973
19	173	46	12.828985099464
19	177	47	0.973
19	181	48	13.534816598956
19	185	49	0.973
19	189	50	6.1941150496454
19	193	51	9.3043846262227
19	197	52	5.1813406041148
19	201	53	0.973
19	205	54	3.6496507704585
19	209	55	12.065336768713
19	213	56	0.973
18	61	18	-1.0027814763598
18	65	19	0.6573272900423
18	69	20	-0.23075939028058
18	73	21	-0.27363085106481
18	77	22	0.28272506373469
18	81	23	0.12425474915653
18	85	24	-0.56181455100887
18	89	25	0.031846217229031
18	93	26	0.391742648324
18	97	27	-0.58810459147207
18	101	28	0.24871918000281
18	105	29	0.55960003193468
18	109	30	-0.19821544387378
18	113	31	0.22647401026916
18	117	32	-0.55157871020492
18	121	33	0.37068583758082
18	125	34	-0.42830911232159
18	129	35	0.79419417993631
18	133	36	-0.27146273874678
18	137	37	-0.68884672655258
18	141	38	1.3163176212693
18	145	39	-0.78532940230798
18	149	40	-0.66409180895425
18	153	41	0.58496512274724
18	157	42	0.74337057117373
18	161	43	0.12922451645136
18	165	44	-0.30785499501508
18	169	45	-0.98799380217679
18	173	46	1.2263470472535
18	177	47	-1.2886357532116
18	181	48	1.3271742666839
18	185	49	-1.3001260320889
18	189	50	0.29437607713044
18	193	51	0.72207479376812
18	197	52	0.10376351641025
18	201	53	-0.80223134346306
18	205	54	-0.092115196399391
18	209	55	1.1079443434719
18	213	56	-0.98189240845386
17	57	17	27.968599276575
17	61	18	26.965817800215
17	65	19	27.623145090257
17	69	20	27.392385699977
17	73	21	27.118754848912
17	77	22	27.401479912647
17	81	23	27.525734661803
17	85	24	26.963920110794
17	89	25	26.995766328023
17	93	26	27.387508976347
17	97	27	26.799404384875
17	101	28	27.048123564878
17	105	29	27.607723596813
17	109	30	27.409508152939
17	113	31	27.635982163208
17	117	32	27.084403453003
17	121	33	27.455089290584
17	125	34	27.026780178263
17	129	35	27.820974358199
17	133	36	27.549511619452
17	137	37	26.860664892899
17	141	38	28.176982514169
17	145	39	27.391653111861
17	149	40	26.727561302907
17	153	41	27.312526425654
17	157	42	28.055896996827
17	161	43	28.185121513279
17	165	44	27.877266518264
17	169	45	26.889272716087
17	173	46	28.11561976334
17	177	47	26.826984010129
17	181	48	28.154158276813
17	185	49	26.854032244724
17	189	50	27.148408321854
17	193	51	27.870483115622
17	197	52	27.974246632033
17	201	53	27.17201528857
17	205	54	27.07990009217
17	209	55	28.187844435642
17	213	56	27.205952027188
16	53	16	76.65
16	57	17	76.65
16	61	18	76.65
16	65	19	76.65
16	69	20	76.65
16	73	21	76.65
16	77	22	76.65
16	81	23	76.65
16	85	24	76.65
16	89	25	76.65
16	93	26	76.65
16	97	27	76.65
16	101	28	76.65
16	105	29	76.65
16	109	30	76.65
16	113	31	76.65
16	117	32	76.65
16	121	33	76.65
16	125	34	76.65
16	129	35	76.65
16	133	36	76.65
16	137	37	76.65
16	141	38	76.65
16	145	39	76.65
16	149	40	76.65
16	153	41	76.65
16	157	42	76.65
16	161	43	76.65
16	165	44	76.65
16	169	45	76.65
16	173	46	76.65
16	177	47	76.65
16	181	48	76.65
16	185	49	76.65
16	189	50	76.65
16	193	51	76.65
16	197	52	76.65
16	201	53	76.65
16	205	54	76.65
16	209	55	76.65
16	213	56	76.65
15	53	16	27.6
15	57	17	27.6
15	61	18	55.568599276575
15	65	19	82.53441707679
15	69	20	110.15756216705
15	73	21	137.54994786702
15	77	22	164.66870271594
15	81	23	192.07018262858
15	85	24	219.59591729039
15	89	25	246.55983740118
15	93	26	273.5556037292
15	97	27	300.94311270555
15	101	28	327.74251709043
15	105	29	354.79064065531
15	109	30	382.39836425212
15	113	31	409.80787240506
15	117	32	437.44385456827
15	121	33	464.52825802127
15	125	34	491.98334731185
15	129	35	519.01012749012
15	133	36	546.83110184831
15	137	37	574.38061346777
15	141	38	601.24127836067
15	145	39	629.41826087483
15	149	40	656.80991398669
15	153	41	683.5374752896
15	157	42	710.85000171526
15	161	43	738.90589871208
15	165	44	767.09102022536
15	169	45	794.96828674363
15	173	46	821.85755945971
15	177	47	849.97317922305
15	181	48	876.80016323318
15	185	49	904.95432150999
15	189	50	931.80835375472
15	193	51	958.95676207657
15	197	52	986.8272451922
15	201	53	1014.8014918242
15	205	54	1041.9735071128
15	209	55	1069.053407205
15	213	56	1097.2412516406
24	81	23	1.7198140054505
24	85	24	6.1081315522163
24	89	25	0.45128873086585
24	93	26	3.9248539072026
24	97	27	5.9903169423355
24	101	28	5.5287536501706
24	105	29	0.973
24	109	30	6.9005996942308
24	113	31	0.63551902889744
24	117	32	6.2605383721301
24	121	33	0.973
24	125	34	7.5420850485266
24	129	35	0.973
24	133	36	11.811932117491
24	137	37	0.973
24	141	38	1.7851376226039
24	145	39	10.392072964978
24	149	40	0.973
24	153	41	5.2123049142352
24	157	42	3.4408699298883
24	161	43	5.6820047546245
24	165	44	5.1921189301963
24	169	45	4.3959947610159
24	173	46	1.768243271352
24	177	47	1.4280448798813
24	181	48	3.1415135751638
24	185	49	2.7952095974108
24	189	50	4.1606699960437
24	193	51	3.9146751446848
24	197	52	4.0810504015441
24	201	53	6.0844221085587
24	205	54	3.6035393349352
24	209	55	1.3057498636085
24	213	56	4.4383015731522
24	217	57	5.9657330584892
24	221	58	3.1977142476819
24	225	59	0.973
24	229	60	4.0672038891292
24	233	61	7.9080639078181
24	237	62	0.973
24	241	63	3.5748533645159
24	245	64	10.897655255216
24	249	65	0.973
24	253	66	7.0633944019931
24	257	67	1.0359624935136
23	81	23	-0.30073112924583
23	85	24	0.45402796100825
23	89	25	-0.52526372484863
23	93	26	0.090403794078156
23	97	27	0.43355912924744
23	101	28	0.3361811946379
23	105	29	-0.91208067757543
23	109	30	0.59132538351696
23	113	31	-0.49308057501912
23	117	32	0.48051058023702
23	121	33	-0.64709407940973
23	125	34	0.70043158822227
23	129	35	-0.71973387699109
23	133	36	1.3806626497535
23	137	37	-1.0407006307505
23	141	38	-0.28552295663394
23	145	39	1.1546452429611
23	149	40	-0.9290560958907
23	153	41	0.30186700634658
23	157	42	-0.0077594413887709
23	161	43	0.36559451557696
23	165	44	0.26842668454628
23	169	45	0.12743186764419
23	173	46	-0.3108863462694
23	177	47	-0.36182881006971
23	181	48	-0.061064777662978
23	185	49	-0.11798438499682
23	189	50	0.11711572401691
23	193	51	0.071345639764331
23	197	52	0.096486782887951
23	201	53	0.42147204943467
23	205	54	-0.0016296909889206
23	209	55	-0.38590885838494
23	213	56	0.15067353285849
23	217	57	0.3930231006816
23	221	58	-0.073654469568282
23	225	59	-0.96514462935738
23	229	60	0.10819701931905
23	233	61	0.73513708845712
23	237	62	-1.053137519164
23	241	63	0.031929343007505
23	245	64	1.2279159704922
23	249	65	-1.4429538315162
23	253	66	0.62813141033985
23	257	67	-0.42073313717265
22	77	22	23.648041684041
22	81	23	23.347310554796
22	85	24	23.801338515804
22	89	25	23.276074790955
22	93	26	23.366478585033
22	97	27	23.800037714281
22	101	28	24.136218908919
22	105	29	23.224138231343
22	109	30	23.81546361486
22	113	31	23.322383039841
22	117	32	23.802893620078
22	121	33	23.155799540668
22	125	34	23.856231128891
22	129	35	23.1364972519
22	133	36	24.517159901653
22	137	37	23.476459270903
22	141	38	23.190936314269
22	145	39	24.34558155723
22	149	40	23.416525461339
22	153	41	23.718392467686
22	157	42	23.710633026297
22	161	43	24.076227541874
22	165	44	24.34465422642
22	169	45	24.472086094064
22	173	46	24.161199747795
22	177	47	23.799370937725
22	181	48	23.738306160062
22	185	49	23.620321775065
22	189	50	23.737437499082
22	193	51	23.808783138847
22	197	52	23.905269921735
22	201	53	24.326741971169
22	205	54	24.32511228018
22	209	55	23.939203421795
22	213	56	24.089876954654
22	217	57	24.482900055336
22	221	58	24.409245585767
22	225	59	23.44410095641
22	229	60	23.552297975729
22	233	61	24.287435064186
22	237	62	23.234297545022
22	241	63	23.26622688803
22	245	64	24.494142858522
22	249	65	23.051189027006
22	253	66	23.679320437345
22	257	67	23.258587300173
21	73	21	76.65
21	77	22	76.65
21	81	23	76.65
21	85	24	76.65
21	89	25	76.65
21	93	26	76.65
21	97	27	76.65
21	101	28	76.65
21	105	29	76.65
21	109	30	76.65
21	113	31	76.65
21	117	32	76.65
21	121	33	76.65
21	125	34	76.65
21	129	35	76.65
21	133	36	76.65
21	137	37	76.65
21	141	38	76.65
21	145	39	76.65
21	149	40	76.65
21	153	41	76.65
21	157	42	76.65
21	161	43	76.65
21	165	44	76.65
21	169	45	76.65
21	173	46	76.65
21	177	47	76.65
21	181	48	76.65
21	185	49	76.65
21	189	50	76.65
21	193	51	76.65
21	197	52	76.65
21	201	53	76.65
21	205	54	76.65
21	209	55	76.65
21	213	56	76.65
21	217	57	76.65
21	221	58	76.65
21	225	59	76.65
21	229	60	76.65
21	233	61	76.65
21	237	62	76.65
21	241	63	76.65
21	245	64	76.65
21	249	65	76.65
21	253	66	76.65
21	257	67	76.65
20	73	21	27.6
20	77	22	27.6
20	81	23	51.248041684041
20	85	24	74.595352238837
20	89	25	98.396690754641
20	93	26	121.6727655456
20	97	27	145.03924413063
20	101	28	168.83928184491
20	105	29	192.97550075383
20	109	30	216.19963898517
20	113	31	240.01510260003
20	117	32	263.33748563987
20	121	33	287.14037925995
20	125	34	310.29617880062
20	129	35	334.15240992951
20	133	36	357.28890718141
20	137	37	381.80606708306
20	141	38	405.28252635397
20	145	39	428.47346266824
20	149	40	452.81904422547
20	153	41	476.2355696868
20	157	42	499.95396215449
20	161	43	523.66459518079
20	165	44	547.74082272266
20	169	45	572.08547694908
20	173	46	596.55756304315
20	177	47	620.71876279094
20	181	48	644.51813372867
20	185	49	668.25643988873
20	189	50	691.87676166379
20	193	51	715.61419916288
20	197	52	739.42298230172
20	201	53	763.32825222346
20	205	54	787.65499419463
20	209	55	811.98010647481
20	213	56	835.9193098966
20	217	57	860.00918685126
20	221	58	884.49208690659
20	225	59	908.90133249236
20	229	60	932.34543344877
20	233	61	955.8977314245
20	237	62	980.18516648869
20	241	63	1003.4194640337
20	245	64	1026.6856909217
20	249	65	1051.1798337803
20	253	66	1074.2310228073
20	257	67	1097.9103432446
29	101	28	5.754529403278
29	105	29	4.9858038120998
29	109	30	1.031036190352
29	113	31	3.9208490831598
29	117	32	9.9739360157494
29	121	33	2.5921328459627
29	125	34	6.3291471048379
29	129	35	0.90433458758265
29	133	36	0.973
29	137	37	3.8251670327525
29	141	38	0.973
29	145	39	0.973
29	149	40	10.723491919808
29	153	41	0.973
29	157	42	2.9964651443814
29	161	43	9.5855743886642
29	165	44	4.2052142828064
29	169	45	3.5654718380208
29	173	46	4.9885069787628
29	177	47	0.35707535518338
29	181	48	0.973
29	185	49	3.8980586042032
29	189	50	3.8489522690624
29	193	51	1.6328238943509
29	197	52	2.8810522252163
29	201	53	10.430177897787
29	205	54	6.7925980022942
29	209	55	0.20599854462044
29	213	56	0.035060254497597
29	217	57	5.9641684533759
29	221	58	0.66670827694887
29	225	59	12.487113808288
29	229	60	0.973
29	233	61	4.5600531273487
29	237	62	9.8233062421229
29	241	63	0.973
29	245	64	7.489863922988
29	249	65	12.533222961031
29	253	66	0.973
29	257	67	8.4169068663716
29	261	68	0.973
28	101	28	0.015538307838142
28	105	29	-0.081297066179104
28	109	30	-0.58373815915547
28	113	31	-0.19247061456554
28	117	32	0.58180507365614
28	121	33	-0.37649380008224
28	125	34	0.11503520887345
28	129	35	-0.59002997214281
28	133	36	-1.9118304577427
28	137	37	-0.12334546713602
28	141	38	-2.3645153751943
28	145	39	-2.3478525056812
28	149	40	1.1449030853525
28	153	41	-1.2651516871328
28	157	42	-0.087744115109007
28	161	43	0.98486737719742
28	165	44	0.080170896324987
28	169	45	-0.025758354605362
28	173	46	0.20301394740759
28	177	47	-0.55728823051361
28	181	48	-0.98385781581385
28	185	49	0.078140344923291
28	189	50	0.066914789874371
28	193	51	-0.31538490079823
28	197	52	-0.090355525737095
28	201	53	1.1583829592675
28	205	54	0.50980294488798
28	209	55	-0.58096319007092
28	213	56	-0.60370651505026
28	217	57	0.41212394398591
28	221	58	-0.49194893441659
28	225	59	1.4423314526411
28	229	60	-1.5375350656941
28	233	61	0.18784611138834
28	237	62	1.0263908595613
28	241	63	-2.5109567187837
28	245	64	0.74931270049462
28	249	65	1.5056981033183
28	253	66	-0.98045670009821
28	257	67	0.81938715181068
28	261	68	-1.5473428604054
27	97	27	31.846806130587
27	101	28	31.862344438425
27	105	29	31.781047372246
27	109	30	31.197309213091
27	113	31	31.004838598525
27	117	32	31.586643672181
27	121	33	31.210149872099
27	125	34	31.325185080972
27	129	35	30.73515510883
27	133	36	28.823324651087
27	137	37	28.699979183951
27	141	38	26.335463808756
27	145	39	23.987611303075
27	149	40	25.132514388428
27	153	41	23.867362701295
27	157	42	23.779618586186
27	161	43	24.764485963383
27	165	44	24.844656859708
27	169	45	24.818898505103
27	173	46	25.021912452511
27	177	47	24.464624221997
27	181	48	23.480766406183
27	185	49	23.558906751106
27	189	50	23.625821540981
27	193	51	23.310436640183
27	197	52	23.220081114445
27	201	53	24.378464073713
27	205	54	24.888267018601
27	209	55	24.30730382853
27	213	56	23.70359731348
27	217	57	24.115721257466
27	221	58	23.623772323049
27	225	59	25.06610377569
27	229	60	23.528568709996
27	233	61	23.716414821384
27	237	62	24.742805680946
27	241	63	22.231848962162
27	245	64	22.981161662657
27	249	65	24.486859765975
27	253	66	23.506403065877
27	257	67	24.325790217687
27	261	68	22.778447357282
26	93	26	76.65
26	97	27	76.65
26	101	28	76.65
26	105	29	76.65
26	109	30	76.65
26	113	31	76.65
26	117	32	76.65
26	121	33	76.65
26	125	34	76.65
26	129	35	76.65
26	133	36	76.65
26	137	37	76.65
26	141	38	76.65
26	145	39	76.65
26	149	40	76.65
26	153	41	76.65
26	157	42	76.65
26	161	43	76.65
26	165	44	76.65
26	169	45	76.65
26	173	46	76.65
26	177	47	76.65
26	181	48	76.65
26	185	49	76.65
26	189	50	76.65
26	193	51	76.65
26	197	52	76.65
26	201	53	76.65
26	205	54	76.65
26	209	55	76.65
26	213	56	76.65
26	217	57	76.65
26	221	58	76.65
26	225	59	76.65
26	229	60	76.65
26	233	61	76.65
26	237	62	76.65
26	241	63	76.65
26	245	64	76.65
26	249	65	76.65
26	253	66	76.65
26	257	67	76.65
26	261	68	76.65
25	93	26	27.6
25	97	27	27.6
25	101	28	59.446806130587
25	105	29	91.309150569012
25	109	30	123.09019794126
25	113	31	154.28750715435
25	117	32	185.29234575287
25	121	33	216.87898942505
25	125	34	248.08913929715
25	129	35	279.41432437813
25	133	36	310.14947948696
25	137	37	338.97280413804
25	141	38	367.67278332199
25	145	39	394.00824713075
25	149	40	417.99585843382
25	153	41	443.12837282225
25	157	42	466.99573552355
25	161	43	490.77535410973
25	165	44	515.53984007312
25	169	45	540.38449693283
25	173	46	565.20339543793
25	177	47	590.22530789044
25	181	48	614.68993211244
25	185	49	638.17069851862
25	189	50	661.72960526973
25	193	51	685.35542681071
25	197	52	708.66586345089
25	201	53	731.88594456533
25	205	54	756.26440863905
25	209	55	781.15267565765
25	213	56	805.45997948618
25	217	57	829.16357679966
25	221	58	853.27929805712
25	225	59	876.90307038017
25	229	60	901.96917415586
25	233	61	925.49774286586
25	237	62	949.21415768724
25	241	63	973.95696336819
25	245	64	996.18881233035
25	249	65	1019.169973993
25	253	66	1043.656833759
25	257	67	1067.1632368249
25	261	68	1091.4890270425
34	121	33	3.8659757209588
34	125	34	4.869130155239
34	129	35	6.6523318641192
34	133	36	4.0811594471718
34	137	37	4.973427140971
34	141	38	0.973
34	145	39	9.8094229342761
34	149	40	3.2421860456858
34	153	41	6.5046071594608
34	157	42	0.973
34	161	43	1.4218253412069
34	165	44	10.705045593214
34	169	45	0.973
34	173	46	7.0471629311923
34	177	47	5.713715884532
34	181	48	6.362503773908
34	185	49	4.0263033472061
34	189	50	0.53017418395225
34	193	51	3.8946058523337
34	197	52	1.5906469061735
34	201	53	10.342099991995
34	205	54	2.9111613001241
34	209	55	1.0098376468133
34	213	56	4.0692423052341
34	217	57	0.90979993819472
34	221	58	3.9689261551926
34	225	59	7.1238313891786
34	229	60	6.0899173234151
34	233	61	2.5501896678026
34	237	62	0.973
34	241	63	8.1414677505579
34	245	64	5.231406787189
34	249	65	0.23549292149332
34	253	66	4.4795450051944
34	257	67	5.1064844947617
34	261	68	6.8354653275335
34	265	69	4.9018421409191
34	269	70	0.973
34	273	71	0.69865766620583
34	277	72	4.5187202171666
34	281	73	6.5462375069853
33	121	33	0.0067289869766682
33	125	34	0.16412850120105
33	129	35	0.43124269670807
33	133	36	0.018435291945934
33	137	37	0.15459434653167
33	141	38	-1.1266257794341
33	145	39	0.93837723357137
33	149	40	-0.11115059559233
33	153	41	0.39341069350485
33	157	42	-0.85389557224698
33	161	43	-0.38619176892098
33	165	44	1.0729086025385
33	169	45	-1.0367776772473
33	173	46	0.51840081706177
33	177	47	0.28716616833117
33	181	48	0.37222588830628
33	185	49	0.0011910845059901
33	189	50	-0.54512605711352
33	193	51	0.00048761896323413
33	197	52	-0.36491866456345
33	201	53	0.99742116685957
33	205	54	-0.17324090225156
33	209	55	-0.46719461283647
33	213	56	0.028037701849826
33	217	57	-0.47530731826555
33	221	58	0.028696292429231
33	225	59	0.51885979087092
33	229	60	0.33479884068947
33	233	61	-0.22339877451304
33	237	62	-0.84427532320842
33	241	63	0.68628164730035
33	245	64	0.20581445493735
33	249	65	-0.58825385186356
33	253	66	0.10487160540652
33	257	67	0.19851902697701
33	261	68	0.45407219720073
33	265	69	0.13954503822606
33	269	70	-0.77450496051461
33	273	71	-0.50581782893278
33	277	72	0.12634270952549
33	281	73	0.43890267144889
32	117	32	25.286518999395
32	121	33	25.293247986372
32	125	34	25.457376487573
32	129	35	25.888619184281
32	133	36	25.907054476227
32	137	37	26.061648822758
32	141	38	24.935023043324
32	145	39	25.873400276896
32	149	40	25.762249681303
32	153	41	26.155660374808
32	157	42	25.301764802561
32	161	43	24.91557303364
32	165	44	25.988481636179
32	169	45	24.951703958932
32	173	46	25.470104775993
32	177	47	25.757270944324
32	181	48	26.129496832631
32	185	49	26.130687917137
32	189	50	25.585561860023
32	193	51	25.586049478986
32	197	52	25.221130814423
32	201	53	26.218551981283
32	205	54	26.045311079031
32	209	55	25.578116466195
32	213	56	25.606154168044
32	217	57	25.130846849779
32	221	58	25.159543142208
32	225	59	25.678402933079
32	229	60	26.013201773768
32	233	61	25.789802999255
32	237	62	24.945527676047
32	241	63	25.631809323347
32	245	64	25.837623778285
32	249	65	25.249369926421
32	253	66	25.354241531828
32	257	67	25.552760558805
32	261	68	26.006832756005
32	265	69	26.146377794231
32	269	70	25.371872833717
32	273	71	24.866055004784
32	277	72	24.99239771431
32	281	73	25.431300385758
31	113	31	76.65
31	117	32	76.65
31	121	33	76.65
31	125	34	76.65
31	129	35	76.65
31	133	36	76.65
31	137	37	76.65
31	141	38	76.65
31	145	39	76.65
31	149	40	76.65
31	153	41	76.65
31	157	42	76.65
31	161	43	76.65
31	165	44	76.65
31	169	45	76.65
31	173	46	76.65
31	177	47	76.65
31	181	48	76.65
31	185	49	76.65
31	189	50	76.65
31	193	51	76.65
31	197	52	76.65
31	201	53	76.65
31	205	54	76.65
31	209	55	76.65
31	213	56	76.65
31	217	57	76.65
31	221	58	76.65
31	225	59	76.65
31	229	60	76.65
31	233	61	76.65
31	237	62	76.65
31	241	63	76.65
31	245	64	76.65
31	249	65	76.65
31	253	66	76.65
31	257	67	76.65
31	261	68	76.65
31	265	69	76.65
31	269	70	76.65
31	273	71	76.65
31	277	72	76.65
31	281	73	76.65
30	113	31	27.6
30	117	32	27.6
30	121	33	52.886518999395
30	125	34	78.179766985767
30	129	35	103.63714347334
30	133	36	129.52576265762
30	137	37	155.43281713385
30	141	38	181.49446595661
30	145	39	206.42948899993
30	149	40	232.30288927683
30	153	41	258.06513895813
30	157	42	284.22079933294
30	161	43	309.5225641355
30	165	44	334.43813716914
30	169	45	360.42661880532
30	173	46	385.37832276425
30	177	47	410.84842754024
30	181	48	436.60569848457
30	185	49	462.7351953172
30	189	50	488.86588323433
30	193	51	514.45144509436
30	197	52	540.03749457334
30	201	53	565.25862538777
30	205	54	591.47717736905
30	209	55	617.52248844808
30	213	56	643.10060491428
30	217	57	668.70675908232
30	221	58	693.8376059321
30	225	59	718.99714907431
30	229	60	744.67555200739
30	233	61	770.68875378115
30	237	62	796.47855678041
30	241	63	821.42408445646
30	245	64	847.0558937798
30	249	65	872.89351755809
30	253	66	898.14288748451
30	257	67	923.49712901634
30	261	68	949.04988957514
30	265	69	975.05672233115
30	269	70	1001.2031001254
30	273	71	1026.5749729591
30	277	72	1051.4410279639
30	281	73	1076.4334256782
39	141	38	0.73712323631422
39	145	39	1.3896159070603
39	149	40	7.3173596862876
39	153	41	2.119478329721
39	157	42	1.9386744159695
39	161	43	4.8955871524551
39	165	44	3.3095543103842
39	169	45	0.973
39	173	46	1.9099105514865
39	177	47	0.73854978924076
39	181	48	5.8395130384695
39	185	49	3.6470516809663
39	189	50	0.98433877433339
39	193	51	5.7465497141349
39	197	52	0.973
39	201	53	2.6481328422678
39	205	54	7.3100961465955
39	209	55	2.6228497157923
39	213	56	0.973
39	217	57	3.8416095089507
39	221	58	1.913600620008
39	225	59	5.5722672157035
39	229	60	0.973
39	233	61	5.5602949021092
39	237	62	3.7680639038051
39	241	63	1.4204905375033
39	245	64	5.7372836740934
39	249	65	0.973
39	253	66	4.4549789340499
39	257	67	2.5097036553646
39	261	68	5.0572604244894
39	265	69	3.6182851739145
39	269	70	0.973
39	273	71	7.1073516148752
39	277	72	1.4659411794005
39	281	73	0.973
39	285	74	9.9928394178167
39	289	75	0.973
39	293	76	3.9408724333754
39	297	77	0.973
39	301	78	3.0677815566281
39	305	79	3.4670396140075
39	309	80	7.9906771409392
39	313	81	2.5243914163222
39	317	82	0.973
39	321	83	4.0465793824584
39	325	84	1.6500017747645
39	329	85	6.2025733786
39	333	86	0.6567995821417
39	337	87	7.4100381895995
39	341	88	0.93124261051964
39	345	89	0.973
38	141	38	-0.43818811245728
38	145	39	-0.3013278124854
38	149	40	0.84511111630127
38	153	41	-0.16961397102568
38	157	42	-0.20055549102835
38	161	43	0.37030611606315
38	165	44	0.05726610228885
38	169	45	-0.57725403900258
38	173	46	-0.19808275694959
38	177	47	-0.430737793562
38	181	48	0.58948977361433
38	185	49	0.14222746307496
38	189	50	-0.38471141410992
38	193	51	0.55202437809203
38	197	52	-1.141012736829
38	201	53	-0.026445796480402
38	205	54	0.88366261927877
38	209	55	-0.057298524887301
38	213	56	-0.70767187722959
38	217	57	0.20991986640729
38	221	58	-0.18420785316266
38	225	59	0.54569224349689
38	229	60	-0.60216186591424
38	233	61	0.54659429937601
38	237	62	0.1744014864089
38	241	63	-0.2939576280769
38	245	64	0.55598515144084
38	249	65	-0.59665142919403
38	253	66	0.31405833817553
38	257	67	-0.076730602537282
38	261	68	0.41733392793685
38	265	69	0.12629804376047
38	269	70	-0.85307044372894
38	273	71	0.8181492065778
38	277	72	-0.29258288629353
38	281	73	-0.865519272862
38	285	74	1.3683234828059
38	289	75	-0.99053852632642
38	293	76	0.21596791455522
38	297	77	-0.64277756027877
38	301	78	0.05913303012494
38	305	79	0.13723439304158
38	309	80	0.99428879830521
38	313	81	-0.085778230335563
38	317	82	-0.7133680251427
38	321	83	0.23805866972543
38	325	84	-0.24450963700656
38	329	85	0.6501808486646
38	333	86	-0.45125315990299
38	337	87	0.86027337738778
38	341	88	-0.40170821570791
38	345	89	-0.52040286641568
37	137	37	21.058876605129
37	141	38	20.620688492672
37	145	39	20.319360680186
37	149	40	21.164471796487
37	153	41	20.994857825462
37	157	42	20.794302334433
37	161	43	21.164608450497
37	165	44	21.221874552785
37	169	45	20.644620513783
37	173	46	20.446537756833
37	177	47	20.015799963271
37	181	48	20.605289736886
37	185	49	20.747517199961
37	189	50	20.362805785851
37	193	51	20.914830163943
37	197	52	19.773817427114
37	201	53	19.747371630633
37	205	54	20.631034249912
37	209	55	20.573735725025
37	213	56	19.866063847795
37	217	57	20.075983714202
37	221	58	19.89177586104
37	225	59	20.437468104537
37	229	60	19.835306238622
37	233	61	20.381900537998
37	237	62	20.556302024407
37	241	63	20.26234439633
37	245	64	20.818329547771
37	249	65	20.221678118577
37	253	66	20.535736456753
37	257	67	20.459005854215
37	261	68	20.876339782152
37	265	69	21.002637825913
37	269	70	20.149567382184
37	273	71	20.967716588762
37	277	72	20.675133702468
37	281	73	19.809614429606
37	285	74	21.177937912412
37	289	75	20.187399386086
37	293	76	20.403367300641
37	297	77	19.760589740362
37	301	78	19.819722770487
37	305	79	19.956957163529
37	309	80	20.951245961834
37	313	81	20.865467731498
37	317	82	20.152099706355
37	321	83	20.390158376081
37	325	84	20.145648739074
37	329	85	20.795829587739
37	333	86	20.344576427836
37	337	87	21.204849805224
37	341	88	20.803141589516
37	345	89	20.2827387231
36	133	36	76.65
36	137	37	76.65
36	141	38	76.65
36	145	39	76.65
36	149	40	76.65
36	153	41	76.65
36	157	42	76.65
36	161	43	76.65
36	165	44	76.65
36	169	45	76.65
36	173	46	76.65
36	177	47	76.65
36	181	48	76.65
36	185	49	76.65
36	189	50	76.65
36	193	51	76.65
36	197	52	76.65
36	201	53	76.65
36	205	54	76.65
36	209	55	76.65
36	213	56	76.65
36	217	57	76.65
36	221	58	76.65
36	225	59	76.65
36	229	60	76.65
36	233	61	76.65
36	237	62	76.65
36	241	63	76.65
36	245	64	76.65
36	249	65	76.65
36	253	66	76.65
36	257	67	76.65
36	261	68	76.65
36	265	69	76.65
36	269	70	76.65
36	273	71	76.65
36	277	72	76.65
36	281	73	76.65
36	285	74	76.65
36	289	75	76.65
36	293	76	76.65
36	297	77	76.65
36	301	78	76.65
36	305	79	76.65
36	309	80	76.65
36	313	81	76.65
36	317	82	76.65
36	321	83	76.65
36	325	84	76.65
36	329	85	76.65
36	333	86	76.65
36	337	87	76.65
36	341	88	76.65
36	345	89	76.65
35	133	36	27.6
35	137	37	27.6
35	141	38	48.658876605129
35	145	39	69.2795650978
35	149	40	89.598925777987
35	153	41	110.76339757447
35	157	42	131.75825539994
35	161	43	152.55255773437
35	165	44	173.71716618487
35	169	45	194.93904073765
35	173	46	215.58366125143
35	177	47	236.03019900827
35	181	48	256.04599897154
35	185	49	276.65128870842
35	189	50	297.39880590838
35	193	51	317.76161169424
35	197	52	338.67644185818
35	201	53	358.45025928529
35	205	54	378.19763091593
35	209	55	398.82866516584
35	213	56	419.40240089086
35	217	57	439.26846473866
35	221	58	459.34444845286
35	225	59	479.2362243139
35	229	60	499.67369241844
35	233	61	519.50899865706
35	237	62	539.89089919506
35	241	63	560.44720121946
35	245	64	580.70954561579
35	249	65	601.52787516357
35	253	66	621.74955328214
35	257	67	642.2852897389
35	261	68	662.74429559311
35	265	69	683.62063537526
35	269	70	704.62327320118
35	273	71	724.77284058336
35	277	72	745.74055717212
35	281	73	766.41569087459
35	285	74	786.2253053042
35	289	75	807.40324321661
35	293	76	827.59064260269
35	297	77	847.99400990333
35	301	78	867.7545996437
35	305	79	887.57432241418
35	309	80	907.53127957771
35	313	81	928.48252553955
35	317	82	949.34799327104
35	321	83	969.5000929774
35	325	84	989.89025135348
35	329	85	1010.0359000926
35	333	86	1030.8317296803
35	337	87	1051.1763061081
35	341	88	1072.3811559134
35	345	89	1093.1842975029
44	161	43	6.1374001617388
44	165	44	3.6762054318944
44	169	45	6.0341875913163
44	173	46	2.6093679010173
44	177	47	0.973
44	181	48	9.0662131405596
44	185	49	1.1828893105173
44	189	50	0.973
44	193	51	0.973
44	197	52	0.973
44	201	53	0.973
44	205	54	1.7996365030663
44	209	55	2.6688172610252
44	213	56	3.947035952128
44	217	57	0.973
44	221	58	0.973
44	225	59	1.2440831021838
44	229	60	9.6104527466864
44	233	61	0.973
44	237	62	13.17035679211
44	241	63	0.75611123042893
44	245	64	0.973
44	249	65	4.5998238746942
44	253	66	0.973
44	257	67	6.6990948832019
44	261	68	4.3804726587858
44	265	69	4.3930860824587
44	269	70	1.0240811741983
44	273	71	0.80910342479871
44	277	72	10.652772201203
44	281	73	0.973
44	285	74	0.973
44	289	75	12.837430110363
44	293	76	2.0890163668238
44	297	77	2.5117045191858
44	301	78	0.973
44	305	79	0.973
44	309	80	7.4846618028169
44	313	81	7.5858803565419
44	317	82	0.88154236733874
44	321	83	4.4128805850981
44	325	84	2.2567376484673
44	329	85	0.973
44	333	86	9.7167052787918
44	337	87	0.973
44	341	88	11.319884603864
44	345	89	0.973
44	349	90	0.973
43	161	43	0.19699452503119
43	165	44	-0.14997472520918
43	169	45	0.1807910297066
43	173	46	-0.29991266538855
43	177	47	-0.92771272128448
43	181	48	0.65003760822583
43	185	49	-0.4890099904723
43	189	50	-2.43397544249
43	193	51	-1.6491058538298
43	197	52	-1.248024230255
43	201	53	-1.489284550897
43	205	54	-0.23088216456282
43	209	55	-0.056644563567353
43	213	56	0.18957864388079
43	217	57	-0.76459761033952
43	221	58	-0.61937878257719
43	225	59	-0.31481893640095
43	229	60	1.3411026822475
43	233	61	-1.3064710677398
43	237	62	1.9694298500564
43	241	63	-0.43797452538147
43	245	64	-0.61900402760669
43	249	65	0.33868337020386
43	253	66	-1.164421308518
43	257	67	0.78775600012543
43	261	68	0.29830687516625
43	265	69	0.28716253089734
43	269	70	-0.37804192970652
43	273	71	-0.41644421054612
43	277	72	1.4636701434068
43	281	73	-0.95440715534863
43	285	74	-1.1744188328414
43	289	75	1.911792934661
43	293	76	-0.1785740468041
43	297	77	-0.092780139015986
43	301	78	-1.3660216889953
43	305	79	-0.55125781736357
43	309	80	0.96378931209276
43	313	81	0.91213878929813
43	317	82	-0.40841983166391
43	321	83	0.29010043925227
43	325	84	-0.13517657451739
43	329	85	-1.0466541197364
43	333	86	1.3306667717031
43	337	87	-0.80397141727325
43	341	88	1.5644082047732
43	345	89	-0.86855494373089
43	349	90	-0.53390614045835
42	157	42	28.798798441959
42	161	43	28.99579296699
42	165	44	28.845818241781
42	169	45	29.026609271487
42	173	46	28.726696606099
42	177	47	27.798983884814
42	181	48	28.44902149304
42	185	49	27.960011502568
42	189	50	25.526036060078
42	193	51	23.876930206248
42	197	52	22.628905975993
42	201	53	21.139621425096
42	205	54	20.908739260533
42	209	55	20.852094696966
42	213	56	21.041673340847
42	217	57	20.277075730507
42	221	58	19.65769694793
42	225	59	19.342878011529
42	229	60	20.683980693777
42	233	61	19.377509626037
42	237	62	21.346939476093
42	241	63	20.908964950712
42	245	64	20.289960923105
42	249	65	20.628644293309
42	253	66	19.464222984791
42	257	67	20.251978984916
42	261	68	20.550285860083
42	265	69	20.83744839098
42	269	70	20.459406461273
42	273	71	20.042962250727
42	277	72	21.506632394134
42	281	73	20.552225238785
42	285	74	19.377806405944
42	289	75	21.289599340605
42	293	76	21.111025293801
42	297	77	21.018245154785
42	301	78	19.65222346579
42	305	79	19.100965648426
42	309	80	20.064754960519
42	313	81	20.976893749817
42	317	82	20.568473918153
42	321	83	20.858574357405
42	325	84	20.723397782888
42	329	85	19.676743663152
42	333	86	21.007410434855
42	337	87	20.203439017581
42	341	88	21.767847222355
42	345	89	20.899292278624
42	349	90	20.365386138165
41	153	41	76.65
41	157	42	76.65
41	161	43	76.65
41	165	44	76.65
41	169	45	76.65
41	173	46	76.65
41	177	47	76.65
41	181	48	76.65
41	185	49	76.65
41	189	50	76.65
41	193	51	76.65
41	197	52	76.65
41	201	53	76.65
41	205	54	76.65
41	209	55	76.65
41	213	56	76.65
41	217	57	76.65
41	221	58	76.65
41	225	59	76.65
41	229	60	76.65
41	233	61	76.65
41	237	62	76.65
41	241	63	76.65
41	245	64	76.65
41	249	65	76.65
41	253	66	76.65
41	257	67	76.65
41	261	68	76.65
41	265	69	76.65
41	269	70	76.65
41	273	71	76.65
41	277	72	76.65
41	281	73	76.65
41	285	74	76.65
41	289	75	76.65
41	293	76	76.65
41	297	77	76.65
41	301	78	76.65
41	305	79	76.65
41	309	80	76.65
41	313	81	76.65
41	317	82	76.65
41	321	83	76.65
41	325	84	76.65
41	329	85	76.65
41	333	86	76.65
41	337	87	76.65
41	341	88	76.65
41	345	89	76.65
41	349	90	76.65
40	153	41	27.6
40	157	42	27.6
40	161	43	56.398798441959
40	165	44	85.394591408949
40	169	45	114.24040965073
40	173	46	143.26701892222
40	177	47	171.99371552832
40	181	48	199.79269941313
40	185	49	228.24172090617
40	189	50	256.20173240874
40	193	51	281.72776846882
40	197	52	305.60469867506
40	201	53	328.23360465106
40	205	54	349.37322607615
40	209	55	370.28196533669
40	213	56	391.13406003365
40	217	57	412.1757333745
40	221	58	432.45280910501
40	225	59	452.11050605294
40	229	60	471.45338406447
40	233	61	492.13736475824
40	237	62	511.51487438428
40	241	63	532.86181386037
40	245	64	553.77077881108
40	249	65	574.06073973419
40	253	66	594.6893840275
40	257	67	614.15360701229
40	261	68	634.40558599721
40	265	69	654.95587185729
40	269	70	675.79332024827
40	273	71	696.25272670954
40	277	72	716.29568896027
40	281	73	737.8023213544
40	285	74	758.35454659319
40	289	75	777.73235299913
40	293	76	799.02195233974
40	297	77	820.13297763354
40	301	78	841.15122278832
40	305	79	860.80344625411
40	309	80	879.90441190254
40	313	81	899.96916686306
40	317	82	920.94606061288
40	321	83	941.51453453103
40	325	84	962.37310888843
40	329	85	983.09650667132
40	333	86	1002.7732503345
40	337	87	1023.7806607693
40	341	88	1043.9840997869
40	345	89	1065.7519470093
40	349	90	1086.6512392879
49	181	48	2.9030584082569
49	185	49	15.328823635641
49	189	50	6.7314192349311
49	193	51	0.973
49	197	52	5.2882217432122
49	201	53	15.849265677401
49	205	54	3.8939495910171
49	209	55	0.973
49	213	56	0.973
49	217	57	0.973
49	221	58	0.973
49	225	59	0.973
49	229	60	0.973
49	233	61	8.4569775392222
49	237	62	0.973
49	241	63	12.970829375892
49	245	64	3.3867378772914
49	249	65	0.973
49	253	66	8.9446201898061
49	257	67	0.973
49	261	68	3.4268214043142
49	265	69	6.4468206643317
49	269	70	4.3140360982665
49	273	71	4.9051042526817
49	277	72	0.973
49	281	73	8.982695317782
49	285	74	0.79936056080833
49	289	75	0.973
49	293	76	9.2863549871423
49	297	77	4.5422740883282
49	301	78	0.973
49	305	79	3.8538318637205
49	309	80	0.973
49	313	81	0.973
49	317	82	12.218929254691
49	321	83	0.973
49	325	84	7.4502769048388
49	329	85	0.973
49	333	86	0.973
49	337	87	12.72034771203
49	341	88	0.973
49	345	89	11.066569303594
49	349	90	0.973
49	353	91	6.6893730598964
49	357	92	16.862614572389
48	181	48	-0.42849456577096
48	185	49	1.0061981094768
48	189	50	-0.0088635730789974
48	193	51	-1.2469660477946
48	197	52	-0.12315748434048
48	201	53	1.0898699221434
48	205	54	-0.32226631301455
48	209	55	-2.5229824098106
48	213	56	-1.8406601592638
48	217	57	-2.3564902397534
48	221	58	-3.7055411465451
48	225	59	-1.6354439431481
48	229	60	-1.0710190931987
48	233	61	0.97168342382418
48	237	62	-3.0877402430608
48	241	63	1.9467975029256
48	245	64	0.069911446402365
48	249	65	-0.80719717344887
48	253	66	1.1255197976116
48	257	67	-2.2405677132948
48	261	68	0.14659074424361
48	265	69	0.73632508090517
48	269	70	0.28566446457403
48	273	71	0.38487867471216
48	277	72	-0.87780097040557
48	281	73	1.1676699639781
48	285	74	-0.42772599487297
48	289	75	-1.1420430797917
48	293	76	1.2561506573344
48	297	77	0.2995954855944
48	301	78	-0.54652496801267
48	305	79	0.18016592187156
48	309	80	-0.98884845598024
48	313	81	-0.59432896081442
48	317	82	1.8181798707991
48	321	83	-0.73564882893461
48	325	84	0.86877597963672
48	329	85	-0.76463483447208
48	333	86	-0.60093780415908
48	337	87	1.8425754533703
48	341	88	-1.2154648616541
48	345	89	1.496825929616
48	349	90	-1.9179860627813
48	353	91	0.74807173357818
48	357	92	2.4114254799206
47	177	47	34.552777803829
47	181	48	34.124283238058
47	185	49	35.130481347535
47	189	50	35.121617774456
47	193	51	33.874651726661
47	197	52	33.751494242321
47	201	53	34.841364164464
47	205	54	34.51909785145
47	209	55	31.996115441639
47	213	56	30.155455282375
47	217	57	27.798965042622
47	221	58	24.093423896077
47	225	59	22.457979952929
47	229	60	21.38696085973
47	233	61	22.358644283554
47	237	62	19.270904040493
47	241	63	21.217701543419
47	245	64	21.287612989821
47	249	65	20.480415816373
47	253	66	21.605935613984
47	257	67	19.365367900689
47	261	68	19.511958644933
47	265	69	20.248283725838
47	269	70	20.533948190412
47	273	71	20.918826865124
47	277	72	20.041025894719
47	281	73	21.208695858697
47	285	74	20.780969863824
47	289	75	19.638926784032
47	293	76	20.895077441367
47	297	77	21.194672926961
47	301	78	20.648147958948
47	305	79	20.82831388082
47	309	80	19.83946542484
47	313	81	19.245136464025
47	317	82	21.063316334824
47	321	83	20.32766750589
47	325	84	21.196443485526
47	329	85	20.431808651054
47	333	86	19.830870846895
47	337	87	21.673446300265
47	341	88	20.457981438611
47	345	89	21.954807368227
47	349	90	20.036821305446
47	353	91	20.784893039024
47	357	92	23.196318518945
46	173	46	76.65
46	177	47	76.65
46	181	48	76.65
46	185	49	76.65
46	189	50	76.65
46	193	51	76.65
46	197	52	76.65
46	201	53	76.65
46	205	54	76.65
46	209	55	76.65
46	213	56	76.65
46	217	57	76.65
46	221	58	76.65
46	225	59	76.65
46	229	60	76.65
46	233	61	76.65
46	237	62	76.65
46	241	63	76.65
46	245	64	76.65
46	249	65	76.65
46	253	66	76.65
46	257	67	76.65
46	261	68	76.65
46	265	69	76.65
46	269	70	76.65
46	273	71	76.65
46	277	72	76.65
46	281	73	76.65
46	285	74	76.65
46	289	75	76.65
46	293	76	76.65
46	297	77	76.65
46	301	78	76.65
46	305	79	76.65
46	309	80	76.65
46	313	81	76.65
46	317	82	76.65
46	321	83	76.65
46	325	84	76.65
46	329	85	76.65
46	333	86	76.65
46	337	87	76.65
46	341	88	76.65
46	345	89	76.65
46	349	90	76.65
46	353	91	76.65
46	357	92	76.65
45	173	46	27.6
45	177	47	27.6
45	181	48	62.152777803829
45	185	49	96.277061041887
45	189	50	131.40754238942
45	193	51	166.52916016388
45	197	52	200.40381189054
45	201	53	234.15530613286
45	205	54	268.99667029732
45	209	55	303.51576814877
45	213	56	335.51188359041
45	217	57	365.66733887279
45	221	58	393.46630391541
45	225	59	417.55972781149
45	229	60	440.01770776442
45	233	61	461.40466862415
45	237	62	483.7633129077
45	241	63	503.03421694819
45	245	64	524.25191849161
45	249	65	545.53953148143
45	253	66	566.01994729781
45	257	67	587.62588291179
45	261	68	606.99125081248
45	265	69	626.50320945741
45	269	70	646.75149318325
45	273	71	667.28544137366
45	277	72	688.20426823879
45	281	73	708.24529413351
45	285	74	729.4539899922
45	289	75	750.23495985603
45	293	76	769.87388664006
45	297	77	790.76896408142
45	301	78	811.96363700839
45	305	79	832.61178496733
45	309	80	853.44009884815
45	313	81	873.27956427299
45	317	82	892.52470073702
45	321	83	913.58801707184
45	325	84	933.91568457773
45	329	85	955.11212806326
45	333	86	975.54393671431
45	337	87	995.37480756121
45	341	88	1017.0482538615
45	345	89	1037.5062353001
45	349	90	1059.4610426683
45	353	91	1079.4978639738
45	357	92	1100.2827570128

