version 2
run General-22-20200211-12:44:45-39082
attr configname General
attr datetime 20200211-12:44:45
attr experiment General
attr inifile omnetpp.ini
attr iterationvars $0=22
attr iterationvarsf 22-
attr measurement $0=22
attr network scenario
attr processid 39082
attr repetition 0
attr replication #0
attr resultdir veins-runall-output
attr runnumber 22
attr seedset 22
param *.playgroundSizeX 10672m
param *.playgroundSizeY 7105m
param *.playgroundSizeZ 10000m
param *.annotations.draw false
param *.world.useTorus false
param *.world.use2D false
param *.manager.updateInterval 1s
param *.manager.host "\"localhost\""
param *.manager.port 9999
param *.manager.moduleType "\"org.car2x.veins.nodes.Car\""
param *.manager.moduleName "\"node\""
param *.manager.moduleDisplayString "\"\""
param *.manager.autoShutdown true
param *.manager.margin 25
param *.manager.launchConfig "xmldoc(\"sumo-launchd.launch.xml\")"
param *.manager.trafficLightModuleType "\"org.car2x.veins.nodes.TrafficLight\""
param *.manager.trafficLightModuleName "\"trafficLight\""
param *.manager.trafficLightModuleDisplayString default
param *.manager.trafficLightFilter "\"10\""
param *.manager.ignoreGuiCommands true
param *.trafficLight[*].mobility.x 0
param *.trafficLight[*].mobility.y 0
param *.trafficLight[*].mobility.z 3
param *.trafficLight[*].applType "\"org.car2x.veins.subprojects.veins_testsims.traci.TraCITrafficLightApp\""
param *.trafficLight[*].logicType "\"org.car2x.veins.subprojects.veins_testsims.traci.TraCITrafficLightTestLogic\""
param *.trafficLight[*].appl.headerLength "80 bit"
param *.trafficLight[*].appl.sendBeacons false
param *.trafficLight[*].appl.dataOnSch true
param *.connectionManager.sendDirect true
param *.connectionManager.maxInterfDist 2600m
param *.connectionManager.drawMaxIntfDist false
param *.**.nic.mac1609_4.useServiceChannel false
param *.**.nic.mac1609_4.txPower 20mW
param *.**.nic.mac1609_4.bitrate 18Mbps
param *.**.nic.phy80211p.minPowerLevel -110dBm
param *.**.nic.phy80211p.useNoiseFloor true
param *.**.nic.phy80211p.noiseFloor -98dBm
param *.**.nic.phy80211p.decider "xmldoc(\"config.xml\")"
param *.**.nic.phy80211p.analogueModels "xmldoc(\"config.xml\")"
param *.**.nic.phy80211p.usePropagationDelay true
param *.node[*].applType "\"org.car2x.veins.subprojects.veins_testsims.traci.TraCITestApp\""
param *.node[0].appl.testNumber 22
param *.node[*].appl.testNumber -1
param *.node[*].veinsmobilityType "\"org.car2x.veins.modules.mobility.traci.TraCIMobility\""
param *.node[*].veinsmobility.x 0
param *.node[*].veinsmobility.y 0
param *.node[*].veinsmobility.z 1.895
param *.node[*].veinsmobility.accidentCount 0
param *.node[*].veinsmobility.setHostSpeed true

vector 0 scenario.node[0].veinsmobility posx ETV
vector 1 scenario.node[0].veinsmobility posy ETV
vector 2 scenario.node[0].veinsmobility speed ETV
vector 3 scenario.node[0].veinsmobility acceleration ETV
vector 4 scenario.node[0].veinsmobility co2emission ETV
vector 5 scenario.node[1].veinsmobility posx ETV
vector 6 scenario.node[1].veinsmobility posy ETV
vector 7 scenario.node[1].veinsmobility speed ETV
vector 8 scenario.node[1].veinsmobility acceleration ETV
vector 9 scenario.node[1].veinsmobility co2emission ETV
vector 10 scenario.node[2].veinsmobility posx ETV
vector 11 scenario.node[2].veinsmobility posy ETV
vector 12 scenario.node[2].veinsmobility speed ETV
vector 13 scenario.node[2].veinsmobility acceleration ETV
vector 14 scenario.node[2].veinsmobility co2emission ETV
vector 15 scenario.node[3].veinsmobility posx ETV
vector 16 scenario.node[3].veinsmobility posy ETV
vector 17 scenario.node[3].veinsmobility speed ETV
vector 18 scenario.node[3].veinsmobility acceleration ETV
vector 19 scenario.node[3].veinsmobility co2emission ETV
vector 20 scenario.node[4].veinsmobility posx ETV
vector 21 scenario.node[4].veinsmobility posy ETV
vector 22 scenario.node[4].veinsmobility speed ETV
vector 23 scenario.node[4].veinsmobility acceleration ETV
vector 24 scenario.node[4].veinsmobility co2emission ETV
vector 25 scenario.node[5].veinsmobility posx ETV
vector 26 scenario.node[5].veinsmobility posy ETV
vector 27 scenario.node[5].veinsmobility speed ETV
vector 28 scenario.node[5].veinsmobility acceleration ETV
vector 29 scenario.node[5].veinsmobility co2emission ETV
vector 30 scenario.node[6].veinsmobility posx ETV
vector 31 scenario.node[6].veinsmobility posy ETV
vector 32 scenario.node[6].veinsmobility speed ETV
vector 33 scenario.node[6].veinsmobility acceleration ETV
vector 34 scenario.node[6].veinsmobility co2emission ETV
vector 35 scenario.node[7].veinsmobility posx ETV
vector 36 scenario.node[7].veinsmobility posy ETV
vector 37 scenario.node[7].veinsmobility speed ETV
vector 38 scenario.node[7].veinsmobility acceleration ETV
vector 39 scenario.node[7].veinsmobility co2emission ETV
vector 40 scenario.node[8].veinsmobility posx ETV
vector 41 scenario.node[8].veinsmobility posy ETV
vector 42 scenario.node[8].veinsmobility speed ETV
vector 43 scenario.node[8].veinsmobility acceleration ETV
vector 44 scenario.node[8].veinsmobility co2emission ETV
vector 45 scenario.node[9].veinsmobility posx ETV
vector 46 scenario.node[9].veinsmobility posy ETV
vector 47 scenario.node[9].veinsmobility speed ETV
vector 48 scenario.node[9].veinsmobility acceleration ETV
vector 49 scenario.node[9].veinsmobility co2emission ETV
4	6	3	1.4710381645611
4	8	4	1.3845760149706
4	10	5	1.302134845413
4	12	6	1.2236471448984
4	14	7	1.149045402437
4	16	8	1.0782621070391
4	18	9	1.011229747715
4	20	10	0.94788081347479
4	22	11	0.88814779332883
4	24	12	0.83196317628728
4	26	13	0.77925945136037
4	28	14	0.7299691075584
4	30	15	0.68402463389158
4	32	16	0.64135851937012
4	34	17	0.60190325300425
4	36	18	0.56559132380425
4	38	19	0.53235522078035
4	40	20	0.50212743294275
4	42	21	0.47484044930169
4	44	22	0.973
4	46	23	0.973
4	48	24	0.973
4	50	25	0.973
4	52	26	0.973
4	54	27	0.973
4	56	28	0.973
4	58	29	0.973
4	60	30	0.973
4	62	31	0.973
4	64	32	0.973
4	66	33	0.973
4	68	34	0.973
4	70	35	0.973
4	72	36	0.973
4	74	37	0.973
4	76	38	0.973
4	78	39	0.973
4	80	40	0.973
4	82	41	0.973
4	84	42	0.973
4	86	43	0.973
4	88	44	0.973
4	90	45	0.973
4	92	46	0.973
4	94	47	0.973
4	96	48	0.973
4	98	49	0.973
4	100	50	0.973
4	102	51	0.973
4	104	52	0.973
4	106	53	0.973
4	108	54	0.973
4	110	55	0.973
4	112	56	0.973
4	114	57	0.973
4	116	58	0.973
4	118	59	0.973
4	120	60	0.973
4	122	61	0.973
4	124	62	0.973
4	126	63	0.973
4	128	64	2.081307932017
4	130	65	3.0523324387545
4	132	66	4.9146647406212
4	134	67	5.5143104387136
4	136	68	5.2395255086738
4	138	69	6.9592935833479
4	140	70	9.9094814200221
4	142	71	10.040573840105
4	144	72	15.743037129636
4	146	73	15.020784833556
4	148	74	18.630030992202
3	6	3	-0.49569763179831
3	8	4	-0.49569763179831
3	10	5	-0.49569763179831
3	12	6	-0.49569763179831
3	14	7	-0.49569763179831
3	16	8	-0.49569763179831
3	18	9	-0.49569763179831
3	20	10	-0.49569763179831
3	22	11	-0.49569763179831
3	24	12	-0.49569763179831
3	26	13	-0.49569763179831
3	28	14	-0.49569763179831
3	30	15	-0.49569763179831
3	32	16	-0.49569763179831
3	34	17	-0.49569763179831
3	36	18	-0.49569763179831
3	38	19	-0.49569763179831
3	40	20	-0.49569763179831
3	42	21	-0.49569763179831
3	44	22	-0.49569763179831
3	46	23	-0.49569763179831
3	48	24	-0.49569763179831
3	50	25	-0.49569763179831
3	52	26	-0.49569763179831
3	54	27	-0.49569763179831
3	56	28	-0.49569763179831
3	58	29	-0.49569763179831
3	60	30	-0.49569763179831
3	62	31	-0.49569763179831
3	64	32	-0.49569763179831
3	66	33	-0.49569763179831
3	68	34	-0.49569763179831
3	70	35	-0.49569763179831
3	72	36	-0.49569763179831
3	74	37	-0.49569763179831
3	76	38	-0.49569763179831
3	78	39	-0.49569763179831
3	80	40	-0.49569763179831
3	82	41	-0.49569763179831
3	84	42	-0.49569763179831
3	86	43	-0.49569763179831
3	88	44	-0.49569763179831
3	90	45	-0.49569763179831
3	92	46	-0.49569763179831
3	94	47	-0.49569763179831
3	96	48	-0.49569763179831
3	98	49	-0.49569763179831
3	100	50	-0.49569763179831
3	102	51	-0.49569763179831
3	104	52	-0.49569763179831
3	106	53	-0.49569763179831
3	108	54	-0.49569763179831
3	110	55	-0.49569763179831
3	112	56	-0.49569763179831
3	114	57	-0.49569763179831
3	116	58	-0.49569763179831
3	118	59	-0.49569763179831
3	120	60	-0.49569763179831
3	122	61	-0.49569763179831
3	124	62	-0.49569763179831
3	126	63	-0.49569763179831
3	128	64	1.7681520839687
3	130	65	1.8582890394609
3	132	66	2.3209666209295
3	134	67	1.9966735329945
3	136	68	1.5219835859025
3	138	69	1.8430583324516
3	140	70	2.3460076460615
3	142	71	2.0244386347476
3	144	72	2.8859838478966
3	146	73	2.3510617670836
3	148	74	2.6331768311793
2	4	2	30.515333317475
2	6	3	30.019635685676
2	8	4	29.523938053878
2	10	5	29.02824042208
2	12	6	28.532542790281
2	14	7	28.036845158483
2	16	8	27.541147526685
2	18	9	27.045449894886
2	20	10	26.549752263088
2	22	11	26.05405463129
2	24	12	25.558356999492
2	26	13	25.062659367693
2	28	14	24.566961735895
2	30	15	24.071264104097
2	32	16	23.575566472298
2	34	17	23.0798688405
2	36	18	22.584171208702
2	38	19	22.088473576903
2	40	20	21.592775945105
2	42	21	21.097078313307
2	44	22	20.601380681508
2	46	23	20.10568304971
2	48	24	19.609985417912
2	50	25	19.114287786114
2	52	26	18.618590154315
2	54	27	18.122892522517
2	56	28	17.627194890719
2	58	29	17.13149725892
2	60	30	16.635799627122
2	62	31	16.140101995324
2	64	32	15.644404363525
2	66	33	15.148706731727
2	68	34	14.653009099929
2	70	35	14.15731146813
2	72	36	13.661613836332
2	74	37	13.165916204534
2	76	38	12.670218572736
2	78	39	12.174520940937
2	80	40	11.678823309139
2	82	41	11.183125677341
2	84	42	10.687428045542
2	86	43	10.191730413744
2	88	44	9.6960327819457
2	90	45	9.2003351501473
2	92	46	8.704637518349
2	94	47	8.2089398865507
2	96	48	7.7132422547524
2	98	49	7.2175446229541
2	100	50	6.7218469911558
2	102	51	6.2261493593575
2	104	52	5.7304517275592
2	106	53	5.2347540957609
2	108	54	4.7390564639626
2	110	55	4.2433588321643
2	112	56	3.7476612003659
2	114	57	3.2519635685676
2	116	58	2.7562659367693
2	118	59	2.260568304971
2	120	60	1.7648706731727
2	122	61	1.2691730413744
2	124	62	0.77347540957609
2	126	63	0.27777777777778
2	128	64	2.0459298617465
2	130	65	3.9042189012075
2	132	66	6.225185522137
2	134	67	8.2218590551315
2	136	68	9.743842641034
2	138	69	11.586900973486
2	140	70	13.932908619547
2	142	71	15.957347254295
2	144	72	18.843331102191
2	146	73	21.194392869275
2	148	74	23.827569700454
1	2	1	76.65
1	4	2	76.65
1	6	3	76.65
1	8	4	76.65
1	10	5	76.65
1	12	6	76.65
1	14	7	76.65
1	16	8	76.65
1	18	9	76.65
1	20	10	76.65
1	22	11	76.65
1	24	12	76.65
1	26	13	76.65
1	28	14	76.65
1	30	15	76.65
1	32	16	76.65
1	34	17	76.65
1	36	18	76.65
1	38	19	76.65
1	40	20	76.65
1	42	21	76.65
1	44	22	76.65
1	46	23	76.65
1	48	24	76.65
1	50	25	76.65
1	52	26	76.65
1	54	27	76.65
1	56	28	76.65
1	58	29	76.65
1	60	30	76.65
1	62	31	76.65
1	64	32	76.65
1	66	33	76.65
1	68	34	76.65
1	70	35	76.65
1	72	36	76.65
1	74	37	76.65
1	76	38	76.65
1	78	39	76.65
1	80	40	76.65
1	82	41	76.65
1	84	42	76.65
1	86	43	76.65
1	88	44	76.65
1	90	45	76.65
1	92	46	76.65
1	94	47	76.65
1	96	48	76.65
1	98	49	76.65
1	100	50	76.65
1	102	51	76.65
1	104	52	76.65
1	106	53	76.65
1	108	54	76.65
1	110	55	76.65
1	112	56	76.65
1	114	57	76.65
1	116	58	76.65
1	118	59	76.65
1	120	60	76.65
1	122	61	76.65
1	124	62	76.65
1	126	63	76.65
1	128	64	76.65
1	130	65	76.65
1	132	66	76.65
1	134	67	76.65
1	136	68	76.65
1	138	69	76.65
1	140	70	76.65
1	142	71	76.65
1	144	72	76.65
1	146	73	76.65
1	148	74	76.65
0	2	1	27.6
0	4	2	27.6
0	6	3	58.115333317475
0	8	4	88.134969003151
0	10	5	117.65890705703
0	12	6	146.68714747911
0	14	7	175.21969026939
0	16	8	203.25653542787
0	18	9	230.79768295456
0	20	10	257.84313284944
0	22	11	284.39288511253
0	24	12	310.44693974382
0	26	13	336.00529674331
0	28	14	361.06795611101
0	30	15	385.6349178469
0	32	16	409.706181951
0	34	17	433.2817484233
0	36	18	456.3616172638
0	38	19	478.9457884725
0	40	20	501.0342620494
0	42	21	522.62703799451
0	44	22	543.72411630781
0	46	23	564.32549698932
0	48	24	584.43118003903
0	50	25	604.04116545694
0	52	26	623.15545324306
0	54	27	641.77404339737
0	56	28	659.89693591989
0	58	29	677.52413081061
0	60	30	694.65562806953
0	62	31	711.29142769665
0	64	32	727.43152969198
0	66	33	743.0759340555
0	68	34	758.22464078723
0	70	35	772.87764988716
0	72	36	787.03496135529
0	74	37	800.69657519162
0	76	38	813.86249139615
0	78	39	826.53270996889
0	80	40	838.70723090983
0	82	41	850.38605421896
0	84	42	861.5691798963
0	86	43	872.25660794185
0	88	44	882.44833835559
0	90	45	892.14437113754
0	92	46	901.34470628768
0	94	47	910.04934380603
0	96	48	918.25828369258
0	98	49	925.97152594734
0	100	50	933.18907057029
0	102	51	939.91091756145
0	104	52	946.1370669208
0	106	53	951.86751864836
0	108	54	957.10227274412
0	110	55	961.84132920809
0	112	56	966.08468804025
0	114	57	969.83234924062
0	116	58	973.08431280918
0	118	59	975.84057874595
0	120	60	978.10114705092
0	122	61	979.8660177241
0	124	62	981.13519076547
0	126	63	981.90866617505
0	128	64	982.18644395283
0	130	65	984.23237381457
0	132	66	988.13659271578
0	134	67	994.36177823792
0	136	68	1002.583637293
0	138	69	1012.3274799341
0	140	70	1023.9143809076
0	142	71	1037.8472895271
0	144	72	1053.8046367814
0	146	73	1072.6479678836
0	148	74	1093.8423607529
9	16	8	0.973
9	18	9	7.571291812718
9	20	10	5.5542453148332
9	22	11	1.4446197809318
9	24	12	8.6315642222256
9	26	13	9.2060826741665
9	28	14	0.973
9	30	15	7.9019978049181
9	32	16	0.973
9	34	17	11.500203797163
9	36	18	4.5331647526975
9	38	19	1.393928211888
9	40	20	4.1751541024019
9	42	21	5.6326656851819
9	44	22	10.165417733907
9	46	23	4.5196711937101
9	48	24	-0.071892173752675
9	50	25	7.1095825402412
9	52	26	6.5199012956322
9	54	27	0.973
9	56	28	0.973
9	58	29	0.973
9	60	30	0.973
9	62	31	0.973
9	64	32	0.973
9	66	33	0.973
9	68	34	3.0750374923243
9	70	35	0.973
9	72	36	2.0935578523094
9	74	37	0.973
9	76	38	0.973
9	78	39	0.973
9	80	40	2.4616144673577
9	82	41	0.973
9	84	42	3.5505143959058
9	86	43	0.973
9	88	44	1.4769110641704
9	90	45	0.973
9	92	46	5.0121389630393
9	94	47	0.973
9	96	48	0.973
9	98	49	2.2876331854134
9	100	50	1.6086164245347
9	102	51	0.973
9	104	52	2.8553790123843
9	106	53	0.973
9	108	54	1.5723853357319
9	110	55	0.973
9	112	56	0.973
9	114	57	0.973
9	116	58	2.1451849253109
9	118	59	0.973
9	120	60	1.4916629015702
9	122	61	0.973
9	124	62	0.973
9	126	63	0.973
9	128	64	0.973
9	130	65	1.3790404338834
9	132	66	2.860465754724
9	134	67	4.5566684333464
9	136	68	5.1053950036496
9	138	69	8.1799396721025
9	140	70	8.5920143234608
9	142	71	7.9452544717566
9	144	72	8.2222805704446
9	146	73	9.5068014590892
9	148	74	16.089045674207
9	150	75	18.152630695226
8	16	8	-0.89912858465686
8	18	9	0.44805449608248
8	20	10	0.14435671095271
8	22	11	-0.4477252420038
8	24	12	0.58708500838839
8	26	13	0.63133426685818
8	28	14	-1.0425417660736
8	30	15	0.47692901152186
8	32	16	-0.83901198150124
8	34	17	0.98942954116501
8	36	18	-0.018599972943775
8	38	19	-0.46267451299354
8	40	20	-0.051175823318772
8	42	21	0.15676494792569
8	44	22	0.76966923766304
8	46	23	-0.035315734567121
8	48	24	-0.68100293946918
8	50	25	0.3521517229965
8	52	26	0.25436424650252
8	54	27	-3.3275817048652
8	56	28	-2.7096233283848
8	58	29	-1.4250962106403
8	60	30	-1.3969109161203
8	62	31	-2.1505402418553
8	64	32	-0.75025079176766
8	66	33	-2.0755389650257
8	68	34	0.24082614648648
8	70	35	-0.58584257996376
8	72	36	-0.0070064037371225
8	74	37	-0.80669000456015
8	76	38	-0.75344285251041
8	78	39	-0.80982313633612
8	80	40	0.18544139568855
8	82	41	-1.7139954013367
8	84	42	0.63084526365691
8	86	43	-1.0531647487119
8	88	44	-0.093902961269034
8	90	45	-1.3380632367412
8	92	46	1.3266253183662
8	94	47	-1.0636032379503
8	96	48	-1.7590488305343
8	98	49	0.39444260641972
8	100	50	0.036379367048283
8	102	51	-1.9218209688036
8	104	52	0.83859436335543
8	106	53	-1.5021672943324
8	108	54	0.13783023150675
8	110	55	-0.87566049310341
8	112	56	-1.0159808943929
8	114	57	-0.13565590879377
8	116	58	0.80064522410315
8	118	59	-2.0953379534833
8	120	60	0.41149216301777
8	122	61	-0.699929060258
8	124	62	-0.57094906258648
8	126	63	-0.48348465558889
8	128	64	-0.23368542244207
8	130	65	0.67881614144355
8	132	66	2.0104262457462
8	134	67	2.3349735658849
8	136	68	1.9650500554126
8	138	69	2.6325101171387
8	140	70	2.2347148460492
8	142	71	1.7242589038045
8	144	72	1.5785441835966
8	146	73	1.6820977858733
8	148	74	2.7272396672051
8	150	75	2.6940413983539
7	14	7	28.609053899346
7	16	8	27.709925314689
7	18	9	28.157979810772
7	20	10	28.302336521724
7	22	11	27.854611279721
7	24	12	28.441696288109
7	26	13	29.073030554967
7	28	14	28.030488788894
7	30	15	28.507417800415
7	32	16	27.668405818914
7	34	17	28.657835360079
7	36	18	28.639235387135
7	38	19	28.176560874142
7	40	20	28.125385050823
7	42	21	28.282149998749
7	44	22	29.051819236412
7	46	23	29.016503501845
7	48	24	28.335500562376
7	50	25	28.687652285372
7	52	26	28.942016531875
7	54	27	25.614434827009
7	56	28	22.904811498625
7	58	29	21.479715287984
7	60	30	20.082804371864
7	62	31	17.932264130009
7	64	32	17.182013338241
7	66	33	15.106474373215
7	68	34	15.347300519702
7	70	35	14.761457939738
7	72	36	14.754451536001
7	74	37	13.947761531441
7	76	38	13.19431867893
7	78	39	12.384495542594
7	80	40	12.569936938283
7	82	41	10.855941536946
7	84	42	11.486786800603
7	86	43	10.433622051891
7	88	44	10.339719090622
7	90	45	9.0016558538808
7	92	46	10.328281172247
7	94	47	9.2646779342967
7	96	48	7.5056291037624
7	98	49	7.9000717101821
7	100	50	7.9364510772304
7	102	51	6.0146301084268
7	104	52	6.8532244717823
7	106	53	5.3510571774499
7	108	54	5.4888874089567
7	110	55	4.6132269158532
7	112	56	3.5972460214603
7	114	57	3.4615901126666
7	116	58	4.2622353367697
7	118	59	2.1668973832864
7	120	60	2.5783895463042
7	122	61	1.8784604860462
7	124	62	1.3075114234597
7	126	63	0.82402676787079
7	128	64	0.59034134542872
7	130	65	1.2691574868723
7	132	66	3.2795837326185
7	134	67	5.6145572985033
7	136	68	7.5796073539159
7	138	69	10.212117471055
7	140	70	12.446832317104
7	142	71	14.171091220908
7	144	72	15.749635404505
7	146	73	17.431733190378
7	148	74	20.158972857583
7	150	75	22.853014255937
6	12	6	76.65
6	14	7	76.65
6	16	8	76.65
6	18	9	76.65
6	20	10	76.65
6	22	11	76.65
6	24	12	76.65
6	26	13	76.65
6	28	14	76.65
6	30	15	76.65
6	32	16	76.65
6	34	17	76.65
6	36	18	76.65
6	38	19	76.65
6	40	20	76.65
6	42	21	76.65
6	44	22	76.65
6	46	23	76.65
6	48	24	76.65
6	50	25	76.65
6	52	26	76.65
6	54	27	76.65
6	56	28	76.65
6	58	29	76.65
6	60	30	76.65
6	62	31	76.65
6	64	32	76.65
6	66	33	76.65
6	68	34	76.65
6	70	35	76.65
6	72	36	76.65
6	74	37	76.65
6	76	38	76.65
6	78	39	76.65
6	80	40	76.65
6	82	41	76.65
6	84	42	76.65
6	86	43	76.65
6	88	44	76.65
6	90	45	76.65
6	92	46	76.65
6	94	47	76.65
6	96	48	76.65
6	98	49	76.65
6	100	50	76.65
6	102	51	76.65
6	104	52	76.65
6	106	53	76.65
6	108	54	76.65
6	110	55	76.65
6	112	56	76.65
6	114	57	76.65
6	116	58	76.65
6	118	59	76.65
6	120	60	76.65
6	122	61	76.65
6	124	62	76.65
6	126	63	76.65
6	128	64	76.65
6	130	65	76.65
6	132	66	76.65
6	134	67	76.65
6	136	68	76.65
6	138	69	76.65
6	140	70	76.65
6	142	71	76.65
6	144	72	76.65
6	146	73	76.65
6	148	74	76.65
6	150	75	76.65
5	12	6	27.6
5	14	7	27.6
5	16	8	56.209053899346
5	18	9	83.918979214035
5	20	10	112.07695902481
5	22	11	140.37929554653
5	24	12	168.23390682625
5	26	13	196.67560311436
5	28	14	225.74863366933
5	30	15	253.77912245822
5	32	16	282.28654025864
5	34	17	309.95494607755
5	36	18	338.61278143763
5	38	19	367.25201682477
5	40	20	395.42857769891
5	42	21	423.55396274973
5	44	22	451.83611274848
5	46	23	480.88793198489
5	48	24	509.90443548674
5	50	25	538.23993604911
5	52	26	566.92758833448
5	54	27	595.86960486636
5	56	28	621.48403969337
5	58	29	644.38885119199
5	60	30	665.86856647998
5	62	31	685.95137085184
5	64	32	703.88363498185
5	66	33	721.06564832009
5	68	34	736.17212269331
5	70	35	751.51942321301
5	72	36	766.28088115275
5	74	37	781.03533268875
5	76	38	794.98309422019
5	78	39	808.17741289912
5	80	40	820.56190844171
5	82	41	833.13184538
5	84	42	843.98778691694
5	86	43	855.47457371754
5	88	44	865.90819576944
5	90	45	876.24791486006
5	92	46	885.24957071394
5	94	47	895.57785188619
5	96	48	904.84252982048
5	98	49	912.34815892424
5	100	50	920.24823063443
5	102	51	928.18468171166
5	104	52	934.19931182008
5	106	53	941.05253629187
5	108	54	946.40359346932
5	110	55	951.89248087827
5	112	56	956.50570779413
5	114	57	960.10295381559
5	116	58	963.56454392825
5	118	59	967.82677926502
5	120	60	969.99367664831
5	122	61	972.57206619461
5	124	62	974.45052668066
5	126	63	975.75803810412
5	128	64	976.58206487199
5	130	65	977.17240621742
5	132	66	978.44156370429
5	134	67	981.72114743691
5	136	68	987.33570473541
5	138	69	994.91531208933
5	140	70	1005.1274295604
5	142	71	1017.5742618775
5	144	72	1031.7453530984
5	146	73	1047.4949885029
5	148	74	1064.9267216933
5	150	75	1085.0856945509
14	26	13	0.973
14	28	14	4.3729879805779
14	30	15	8.8381248682011
14	32	16	6.1443901092633
14	34	17	0.15586116913647
14	36	18	6.3080158955641
14	38	19	8.8384403009795
14	40	20	0.973
14	42	21	5.7960442460378
14	44	22	1.9526743057003
14	46	23	5.0056499539316
14	48	24	6.1730644351122
14	50	25	2.5518715447115
14	52	26	8.0388904821201
14	54	27	0.13446603888513
14	56	28	11.453308106654
14	58	29	0.973
14	60	30	9.0348994723416
14	62	31	1.7679681564808
14	64	32	1.1088404374297
14	66	33	9.0844257967881
14	68	34	0.973
14	70	35	8.3225973687184
14	72	36	9.7124303614379
14	74	37	3.767033530957
14	76	38	0.973
14	78	39	0.973
14	80	40	0.973
14	82	41	0.973
14	84	42	0.973
14	86	43	0.973
14	88	44	0.973
14	90	45	4.4846711107378
14	92	46	0.973
14	94	47	6.6426435651761
14	96	48	0.973
14	98	49	0.973
14	100	50	3.1506942658938
14	102	51	0.973
14	104	52	0.973
14	106	53	1.7402634851548
14	108	54	1.2307674084978
14	110	55	0.973
14	112	56	0.973
14	114	57	0.973
14	116	58	4.0141060809822
14	118	59	0.973
14	120	60	0.973
14	122	61	1.327627929123
14	124	62	0.973
14	126	63	1.319594767912
14	128	64	0.973
14	130	65	0.973
14	132	66	1.4254169872826
14	134	67	1.8748769328652
14	136	68	3.2749543721499
14	138	69	4.0056722047926
14	140	70	6.6935173037825
14	142	71	8.7216977664771
14	144	72	12.194594923918
14	146	73	10.371795028864
14	148	74	9.5227558194114
14	150	75	11.66234038729
14	152	76	13.559472444026
14	154	77	11.876897958616
13	26	13	-1.0121632965747
13	28	14	0.014476087060757
13	30	15	0.6544062285684
13	32	16	0.24133810924832
13	34	17	-0.63323444430716
13	36	18	0.28271973493975
13	38	19	0.62254243553616
13	40	20	-0.7974309992278
13	42	21	0.20473181270063
13	44	22	-0.36040437163319
13	46	23	0.097728461958468
13	48	24	0.26115354057401
13	50	25	-0.27218583819922
13	52	26	0.52526110445615
13	54	27	-0.63535490969662
13	56	28	1.0031779732089
13	58	29	-0.89114320732187
13	60	30	0.66389641806018
13	62	31	-0.39716232998762
13	64	32	-0.48545344825834
13	66	33	0.68382752663456
13	68	34	-0.82195031654555
13	70	35	0.58496512274724
13	72	36	0.74337057117373
13	74	37	-0.11913635220844
13	76	38	-4.8641280325044
13	78	39	-2.5700716454794
13	80	40	-4.085380213187
13	82	41	-1.8702108215791
13	84	42	-3.2572001592007
13	86	43	-0.31594628230336
13	88	44	-1.2929423590032
13	90	45	1.0138913209305
13	92	46	-2.3072280475555
13	94	47	1.9021398231837
13	96	48	-1.8914042261651
13	98	49	-0.6325327397079
13	100	50	0.72153034288036
13	102	51	-0.89505572879651
13	104	52	-2.13330660406
13	106	53	0.21567024947646
13	108	54	-0.12955571473074
13	110	55	-0.15298994299452
13	112	56	-1.2006350901859
13	114	57	-2.1671608092213
13	116	58	2.3247910284488
13	118	59	-0.61457231600732
13	120	60	-2.0898260904654
13	122	61	0.19909015253783
13	124	62	-0.59656517410526
13	126	63	0.25415404796526
13	128	64	-0.81393978204205
13	130	65	-0.74606796883024
13	132	66	0.87183697963221
13	134	67	1.1415172478245
13	136	68	1.9004968124209
13	138	69	1.7757865106687
13	140	70	2.488988600322
13	142	71	2.5927638430148
13	144	72	2.984571444802
13	146	73	2.074814596097
13	148	74	1.6374370206613
13	150	75	1.8747955625877
13	152	76	2.0008474976057
13	154	77	1.5181568266125
12	24	12	28.185867935272
12	26	13	27.173704638697
12	28	14	27.188180725758
12	30	15	27.842586954326
12	32	16	28.083925063575
12	34	17	27.450690619267
12	36	18	27.733410354207
12	38	19	28.355952789743
12	40	20	27.558521790515
12	42	21	27.763253603216
12	44	22	27.402849231583
12	46	23	27.500577693541
12	48	24	27.761731234115
12	50	25	27.489545395916
12	52	26	28.014806500372
12	54	27	27.379451590676
12	56	28	28.382629563885
12	58	29	27.491486356563
12	60	30	28.155382774623
12	62	31	27.758220444635
12	64	32	27.272766996377
12	66	33	27.956594523012
12	68	34	27.134644206466
12	70	35	27.719609329213
12	72	36	28.462979900387
12	74	37	28.343843548179
12	76	38	23.479715515674
12	78	39	20.909643870195
12	80	40	16.824263657008
12	82	41	14.954052835429
12	84	42	11.696852676228
12	86	43	11.380906393924
12	88	44	10.087964034921
12	90	45	11.101855355852
12	92	46	8.7946273082963
12	94	47	10.69676713148
12	96	48	8.8053629053149
12	98	49	8.172830165607
12	100	50	8.8943605084873
12	102	51	7.9993047796908
12	104	52	5.8659981756309
12	106	53	6.0816684251073
12	108	54	5.9521127103766
12	110	55	5.7991227673821
12	112	56	4.5984876771962
12	114	57	2.4313268679749
12	116	58	4.7561178964236
12	118	59	4.1415455804163
12	120	60	2.0517194899509
12	122	61	2.2508096424888
12	124	62	1.6542444683835
12	126	63	1.9083985163488
12	128	64	1.0944587343067
12	130	65	0.34839076547647
12	132	66	1.2202277451087
12	134	67	2.3617449929332
12	136	68	4.2622418053541
12	138	69	6.0380283160228
12	140	70	8.5270169163448
12	142	71	11.11978075936
12	144	72	14.104352204162
12	146	73	16.179166800259
12	148	74	17.81660382092
12	150	75	19.691399383508
12	152	76	21.692246881113
12	154	77	23.210403707726
11	22	11	76.65
11	24	12	76.65
11	26	13	76.65
11	28	14	76.65
11	30	15	76.65
11	32	16	76.65
11	34	17	76.65
11	36	18	76.65
11	38	19	76.65
11	40	20	76.65
11	42	21	76.65
11	44	22	76.65
11	46	23	76.65
11	48	24	76.65
11	50	25	76.65
11	52	26	76.65
11	54	27	76.65
11	56	28	76.65
11	58	29	76.65
11	60	30	76.65
11	62	31	76.65
11	64	32	76.65
11	66	33	76.65
11	68	34	76.65
11	70	35	76.65
11	72	36	76.65
11	74	37	76.65
11	76	38	76.65
11	78	39	76.65
11	80	40	76.65
11	82	41	76.65
11	84	42	76.65
11	86	43	76.65
11	88	44	76.65
11	90	45	76.65
11	92	46	76.65
11	94	47	76.65
11	96	48	76.65
11	98	49	76.65
11	100	50	76.65
11	102	51	76.65
11	104	52	76.65
11	106	53	76.65
11	108	54	76.65
11	110	55	76.65
11	112	56	76.65
11	114	57	76.65
11	116	58	76.65
11	118	59	76.65
11	120	60	76.65
11	122	61	76.65
11	124	62	76.65
11	126	63	76.65
11	128	64	76.65
11	130	65	76.65
11	132	66	76.65
11	134	67	76.65
11	136	68	76.65
11	138	69	76.65
11	140	70	76.65
11	142	71	76.65
11	144	72	76.65
11	146	73	76.65
11	148	74	76.65
11	150	75	76.65
11	152	76	76.65
11	154	77	76.65
10	22	11	27.6
10	24	12	27.6
10	26	13	55.785867935272
10	28	14	82.959572573969
10	30	15	110.14775329973
10	32	16	137.99034025405
10	34	17	166.07426531763
10	36	18	193.52495593689
10	38	19	221.2583662911
10	40	20	249.61431908085
10	42	21	277.17284087136
10	44	22	304.93609447458
10	46	23	332.33894370616
10	48	24	359.8395213997
10	50	25	387.60125263382
10	52	26	415.09079802973
10	54	27	443.1056045301
10	56	28	470.48505612078
10	58	29	498.86768568467
10	60	30	526.35917204123
10	62	31	554.51455481585
10	64	32	582.27277526049
10	66	33	609.54554225686
10	68	34	637.50213677987
10	70	35	664.63678098634
10	72	36	692.35639031555
10	74	37	720.81937021594
10	76	38	749.16321376412
10	78	39	772.64292927979
10	80	40	793.55257314999
10	82	41	810.376836807
10	84	42	825.33088964242
10	86	43	837.02774231865
10	88	44	848.40864871258
10	90	45	858.4966127475
10	92	46	869.59846810335
10	94	47	878.39309541165
10	96	48	889.08986254313
10	98	49	897.89522544844
10	100	50	906.06805561405
10	102	51	914.96241612254
10	104	52	922.96172090223
10	106	53	928.82771907786
10	108	54	934.90938750296
10	110	55	940.86150021334
10	112	56	946.66062298072
10	114	57	951.25911065792
10	116	58	953.69043752589
10	118	59	958.44655542232
10	120	60	962.58810100273
10	122	61	964.63982049269
10	124	62	966.89063013517
10	126	63	968.54487460356
10	128	64	970.45327311991
10	130	65	971.54773185421
10	132	66	971.89612261969
10	134	67	973.1163503648
10	136	68	975.47809535773
10	138	69	979.74033716309
10	140	70	985.77836547911
10	142	71	994.30538239545
10	144	72	1005.4251631548
10	146	73	1019.529515359
10	148	74	1035.7086821592
10	150	75	1053.5252859802
10	152	76	1073.2166853637
10	154	77	1094.9089322448
19	36	18	0.973
19	38	19	8.7656023505817
19	40	20	2.8067614496698
19	42	21	2.4722530214755
19	44	22	6.1995125269225
19	46	23	5.1887010820362
19	48	24	0.57091125970782
19	50	25	7.1247369479576
19	52	26	0.38250473711102
19	54	27	5.4983221716356
19	56	28	4.5926762267999
19	58	29	6.721718426366
19	60	30	5.9013711644349
19	62	31	0.973
19	64	32	8.624040079427
19	66	33	1.447709497637
19	68	34	9.7662920073525
19	70	35	-0.52820618425796
19	72	36	2.7205413224257
19	74	37	13.474512201954
19	76	38	3.4110112825996
19	78	39	0.74032334298038
19	80	40	3.9313586498195
19	82	41	3.528555371119
19	84	42	6.2684532473316
19	86	43	7.9075280679285
19	88	44	1.2740903653201
19	90	45	4.9105503748813
19	92	46	0.973
19	94	47	0.973
19	96	48	0.973
19	98	49	0.973
19	100	50	0.973
19	102	51	0.973
19	104	52	0.973
19	106	53	0.973
19	108	54	0.973
19	110	55	4.2521480121908
19	112	56	0.973
19	114	57	1.4461612555973
19	116	58	0.973
19	118	59	3.3949856393255
19	120	60	0.973
19	122	61	0.973
19	124	62	0.973
19	126	63	0.973
19	128	64	1.2089779016222
19	130	65	0.973
19	132	66	1.1379648476798
19	134	67	0.973
19	136	68	1.9705874095366
19	138	69	2.2591978808136
19	140	70	3.7135313580538
19	142	71	4.6863613470538
19	144	72	7.3721380323523
19	146	73	7.563911962474
19	148	74	10.231088551549
19	150	75	13.379769314836
19	152	76	13.578726674946
19	154	77	14.050952870782
19	156	78	12.926673946819
18	36	18	-1.0027814763598
18	38	19	0.6573272900423
18	40	20	-0.23075939028058
18	42	21	-0.27363085106481
18	44	22	0.28272506373469
18	46	23	0.12425474915653
18	48	24	-0.56181455100887
18	50	25	0.42358886555303
18	52	26	-0.58810459147207
18	54	27	0.19505098415539
18	56	28	0.053668195847422
18	58	29	0.3613845880609
18	60	30	0.22647401026916
18	62	31	-0.827412582119
18	64	32	0.6465197094949
18	66	33	-0.42830911232159
18	68	34	0.79419417993631
18	70	35	-0.73237656767014
18	72	36	-0.22793289762922
18	74	37	1.3163176212693
18	76	38	-0.16025595855899
18	78	39	-0.54528328869492
18	80	40	-0.061064777662978
18	82	41	-0.11798438499682
18	84	42	0.28449927968904
18	86	43	0.50212166493293
18	88	44	-0.46773929789197
18	90	45	0.07558081462048
18	92	46	-3.9511263172358
18	94	47	-5.5370210804307
18	96	48	-4.2981826338458
18	98	49	-2.943435928813
18	100	50	-0.8051610081391
18	102	51	-0.67500195433724
18	104	52	-1.5154833595155
18	106	53	-1.4626111916545
18	108	54	-1.0786012509555
18	110	55	1.6300600095935
18	112	56	-2.2585801700545
18	114	57	0.077228192524434
18	116	58	-2.3008240113916
18	118	59	1.9095882653492
18	120	60	-0.23273794675133
18	122	61	-1.2598717790325
18	124	62	-0.74525574972643
18	126	63	-0.86593405163868
18	128	64	0.081256812193274
18	130	65	-0.26247227391587
18	132	66	-0.094925118959013
18	134	67	-0.14004423475974
18	136	68	1.3471102924802
18	138	69	1.1682045570515
18	140	70	1.827260459424
18	142	71	1.8543452792801
18	144	72	2.465388879762
18	146	73	2.0436745685292
18	148	74	2.4125790072139
18	150	75	2.7223768777912
18	152	76	2.3596627843799
18	154	77	2.1462882369524
18	156	78	1.7255550997797
17	34	17	27.968599276575
17	36	18	26.965817800215
17	38	19	27.623145090257
17	40	20	27.392385699977
17	42	21	27.118754848912
17	44	22	27.401479912647
17	46	23	27.525734661803
17	48	24	26.963920110794
17	50	25	27.387508976347
17	52	26	26.799404384875
17	54	27	26.994455369031
17	56	28	27.048123564878
17	58	29	27.409508152939
17	60	30	27.635982163208
17	62	31	26.808569581089
17	64	32	27.455089290584
17	66	33	27.026780178263
17	68	34	27.820974358199
17	70	35	27.088597790529
17	72	36	26.860664892899
17	74	37	28.176982514169
17	76	38	28.01672655561
17	78	39	27.471443266915
17	80	40	27.410378489252
17	82	41	27.292394104255
17	84	42	27.576893383944
17	86	43	28.079015048877
17	88	44	27.611275750985
17	90	45	27.686856565606
17	92	46	23.73573024837
17	94	47	18.198709167939
17	96	48	13.900526534093
17	98	49	10.95709060528
17	100	50	10.151929597141
17	102	51	9.476927642804
17	104	52	7.9614442832884
17	106	53	6.4988330916339
17	108	54	5.4202318406784
17	110	55	7.050291850272
17	112	56	4.7917116802174
17	114	57	4.8689398727418
17	116	58	2.5681158613503
17	118	59	4.4777041266994
17	120	60	4.2449661799481
17	122	61	2.9850944009156
17	124	62	2.2398386511891
17	126	63	1.3739045995504
17	128	64	1.4551614117437
17	130	65	1.1926891378278
17	132	66	1.0977640188688
17	134	67	0.95771978410909
17	136	68	2.3048300765893
17	138	69	3.4730346336408
17	140	70	5.3002950930648
17	142	71	7.1546403723449
17	144	72	9.6200292521069
17	146	73	11.663703820636
17	148	74	14.07628282785
17	150	75	16.798659705641
17	152	76	19.158322490021
17	154	77	21.304610726974
17	156	78	23.030165826753
16	32	16	76.65
16	34	17	76.65
16	36	18	76.65
16	38	19	76.65
16	40	20	76.65
16	42	21	76.65
16	44	22	76.65
16	46	23	76.65
16	48	24	76.65
16	50	25	76.65
16	52	26	76.65
16	54	27	76.65
16	56	28	76.65
16	58	29	76.65
16	60	30	76.65
16	62	31	76.65
16	64	32	76.65
16	66	33	76.65
16	68	34	76.65
16	70	35	76.65
16	72	36	76.65
16	74	37	76.65
16	76	38	76.65
16	78	39	76.65
16	80	40	76.65
16	82	41	76.65
16	84	42	76.65
16	86	43	76.65
16	88	44	76.65
16	90	45	76.65
16	92	46	76.65
16	94	47	76.65
16	96	48	76.65
16	98	49	76.65
16	100	50	76.65
16	102	51	76.65
16	104	52	76.65
16	106	53	76.65
16	108	54	76.65
16	110	55	76.65
16	112	56	76.65
16	114	57	76.65
16	116	58	76.65
16	118	59	76.65
16	120	60	76.65
16	122	61	76.65
16	124	62	76.65
16	126	63	76.65
16	128	64	76.65
16	130	65	76.65
16	132	66	76.65
16	134	67	76.65
16	136	68	76.65
16	138	69	76.65
16	140	70	76.65
16	142	71	76.65
16	144	72	76.65
16	146	73	76.65
16	148	74	76.65
16	150	75	76.65
16	152	76	76.65
16	154	77	76.65
16	156	78	76.65
15	32	16	27.6
15	34	17	27.6
15	36	18	55.568599276575
15	38	19	82.53441707679
15	40	20	110.15756216705
15	42	21	137.54994786702
15	44	22	164.66870271594
15	46	23	192.07018262858
15	48	24	219.59591729039
15	50	25	246.55983740118
15	52	26	273.94734637753
15	54	27	300.7467507624
15	56	28	327.74120613143
15	58	29	354.78932969631
15	60	30	382.19883784925
15	62	31	409.83482001246
15	64	32	436.64338959355
15	66	33	464.09847888413
15	68	34	491.1252590624
15	70	35	518.94623342059
15	72	36	546.03483121112
15	74	37	572.89549610402
15	76	38	601.07247861819
15	78	39	629.0892051738
15	80	40	656.56064844072
15	82	41	683.97102692997
15	84	42	711.26342103422
15	86	43	738.84031441817
15	88	44	766.91932946704
15	90	45	794.53060521803
15	92	46	822.21746178363
15	94	47	845.953192032
15	96	48	864.15190119994
15	98	49	878.05242773404
15	100	50	889.00951833932
15	102	51	899.16144793646
15	104	52	908.63837557926
15	106	53	916.59981986255
15	108	54	923.09865295418
15	110	55	928.51888479486
15	112	56	935.56917664513
15	114	57	940.36088832535
15	116	58	945.22982819809
15	118	59	947.79794405944
15	120	60	952.27564818614
15	122	61	956.52061436609
15	124	62	959.50570876701
15	126	63	961.7455474182
15	128	64	963.11945201775
15	130	65	964.57461342949
15	132	66	965.76730256732
15	134	67	966.86506658619
15	136	68	967.8227863703
15	138	69	970.12761644689
15	140	70	973.60065108053
15	142	71	978.90094617359
15	144	72	986.05558654594
15	146	73	995.67561579804
15	148	74	1007.3393196187
15	150	75	1021.4156024465
15	152	76	1038.2142621522
15	154	77	1057.3725846422
15	156	78	1078.6771953692
24	46	23	1.7198140054505
24	48	24	6.1081315522163
24	50	25	0.45128873086585
24	52	26	3.9248539072026
24	54	27	5.9903169423355
24	56	28	5.5287536501706
24	58	29	0.973
24	60	30	6.9005996942308
24	62	31	3.4319829540631
24	64	32	0.973
24	66	33	7.5420850485266
24	68	34	2.8845983473813
24	70	35	8.1875820480081
24	72	36	0.973
24	74	37	8.2896937708441
24	76	38	4.0313810502965
24	78	39	0.973
24	80	40	1.745994452582
24	82	41	5.1422734836215
24	84	42	6.4059272959713
24	86	43	0.71000235039326
24	88	44	8.1466191128295
24	90	45	2.1324089703721
24	92	46	5.0181293047006
24	94	47	0.973
24	96	48	2.9456663043937
24	98	49	5.2448614697651
24	100	50	1.013178120201
24	102	51	5.1104813283449
24	104	52	3.0156218335286
24	106	53	6.4823384980591
24	108	54	0.973
24	110	55	2.7595334122082
24	112	56	5.7096347167051
24	114	57	2.7102578058508
24	116	58	8.9401258827689
24	118	59	0.973
24	120	60	0.973
24	122	61	0.973
24	124	62	0.973
24	126	63	0.973
24	128	64	0.973
24	130	65	0.973
24	132	66	1.2984149556618
24	134	67	0.973
24	136	68	1.2976587856325
24	138	69	1.7387521700533
24	140	70	2.1246666383506
24	142	71	2.2181560022389
24	144	72	4.129661795153
24	146	73	7.1539250353766
24	148	74	7.2870088284691
24	150	75	8.3507513333512
24	152	76	7.4459460538219
24	154	77	14.845643121941
24	156	78	17.373843033395
24	158	79	14.272917407988
24	160	80	13.134474799906
23	46	23	-0.30073112924583
23	48	24	0.45402796100825
23	50	25	-0.52526372484863
23	52	26	0.090403794078156
23	54	27	0.43355912924744
23	56	28	0.3361811946379
23	58	29	-0.91208067757543
23	60	30	0.59132538351696
23	62	31	-0.012569994782098
23	64	32	-0.64709407940973
23	66	33	0.70043158822227
23	68	34	-0.1063350563636
23	70	35	0.76726382912602
23	72	36	-1.0407006307505
23	74	37	0.80102453066502
23	76	38	0.070458349655382
23	78	39	-0.62954968353733
23	80	40	-0.29774682840798
23	82	41	0.28998738701921
23	84	42	0.48371609626338
23	86	43	-0.48563400597777
23	88	44	0.76337097748183
23	90	45	-0.24991821160074
23	92	46	0.23366350599099
23	94	47	-0.62312320503406
23	96	48	-0.095270684338175
23	98	49	0.29248292755801
23	100	50	-0.43066736951005
23	102	51	0.27656701114029
23	104	52	-0.084769639070146
23	106	53	0.49181724479422
23	108	54	-1.0676740977215
23	110	55	-0.10860741999932
23	112	56	0.39995845151134
23	114	57	-0.12571363407187
23	116	58	0.91112609580159
23	118	59	-3.9471359079768
23	120	60	-7.1882920775309
23	122	61	-3.4409695117712
23	124	62	-6.7722721201961
23	126	63	-0.29641200028041
23	128	64	-1.2430195970489
23	130	65	-0.19733009858614
23	132	66	0.31333944824435
23	134	67	-0.70579054364862
23	136	68	0.42677249854805
23	138	69	0.97522715036106
23	140	70	1.0749793215782
23	142	71	0.89228555232848
23	144	72	1.8593654989963
23	146	73	2.6543919191463
23	148	74	2.1236246827757
23	150	75	2.0673582513118
23	152	76	1.5419317219639
23	154	77	2.9611106581287
23	156	78	2.9575411195401
23	158	79	2.046421323088
23	160	80	1.6529298604094
22	44	22	23.648041684041
22	46	23	23.347310554796
22	48	24	23.801338515804
22	50	25	23.276074790955
22	52	26	23.366478585033
22	54	27	23.800037714281
22	56	28	24.136218908919
22	58	29	23.224138231343
22	60	30	23.81546361486
22	62	31	23.802893620078
22	64	32	23.155799540668
22	66	33	23.856231128891
22	68	34	23.749896072527
22	70	35	24.517159901653
22	72	36	23.476459270903
22	74	37	24.277483801568
22	76	38	24.347942151223
22	78	39	23.718392467686
22	80	40	23.420645639278
22	82	41	23.710633026297
22	84	42	24.19434912256
22	86	43	23.708715116583
22	88	44	24.472086094064
22	90	45	24.222167882464
22	92	46	24.455831388455
22	94	47	23.832708183421
22	96	48	23.737437499082
22	98	49	24.02992042664
22	100	50	23.59925305713
22	102	51	23.875820068271
22	104	52	23.791050429201
22	106	53	24.282867673995
22	108	54	23.215193576273
22	110	55	23.106586156274
22	112	56	23.506544607785
22	114	57	23.380830973713
22	116	58	24.291957069515
22	118	59	20.344821161538
22	120	60	13.156529084007
22	122	61	9.7155595722361
22	124	62	2.94328745204
22	126	63	2.6468754517595
22	128	64	1.4038558547106
22	130	65	1.2065257561245
22	132	66	1.5198652043688
22	134	67	0.81407466072022
22	136	68	1.2408471592683
22	138	69	2.2160743096293
22	140	70	3.2910536312076
22	142	71	4.1833391835361
22	144	72	6.0427046825324
22	146	73	8.6970966016787
22	148	74	10.820721284454
22	150	75	12.888079535766
22	152	76	14.43001125773
22	154	77	17.391121915859
22	156	78	20.348663035399
22	158	79	22.395084358487
22	160	80	24.048014218896
21	42	21	76.65
21	44	22	76.65
21	46	23	76.65
21	48	24	76.65
21	50	25	76.65
21	52	26	76.65
21	54	27	76.65
21	56	28	76.65
21	58	29	76.65
21	60	30	76.65
21	62	31	76.65
21	64	32	76.65
21	66	33	76.65
21	68	34	76.65
21	70	35	76.65
21	72	36	76.65
21	74	37	76.65
21	76	38	76.65
21	78	39	76.65
21	80	40	76.65
21	82	41	76.65
21	84	42	76.65
21	86	43	76.65
21	88	44	76.65
21	90	45	76.65
21	92	46	76.65
21	94	47	76.65
21	96	48	76.65
21	98	49	76.65
21	100	50	76.65
21	102	51	76.65
21	104	52	76.65
21	106	53	76.65
21	108	54	76.65
21	110	55	76.65
21	112	56	76.65
21	114	57	76.65
21	116	58	76.65
21	118	59	76.65
21	120	60	76.65
21	122	61	76.65
21	124	62	76.65
21	126	63	76.65
21	128	64	76.65
21	130	65	76.65
21	132	66	76.65
21	134	67	76.65
21	136	68	76.65
21	138	69	76.65
21	140	70	76.65
21	142	71	76.65
21	144	72	76.65
21	146	73	76.65
21	148	74	76.65
21	150	75	76.65
21	152	76	76.65
21	154	77	76.65
21	156	78	76.65
21	158	79	76.65
21	160	80	76.65
20	42	21	27.6
20	44	22	27.6
20	46	23	51.248041684041
20	48	24	74.595352238837
20	50	25	98.396690754641
20	52	26	121.6727655456
20	54	27	145.03924413063
20	56	28	168.83928184491
20	58	29	192.97550075383
20	60	30	216.19963898517
20	62	31	240.01510260003
20	64	32	263.81799622011
20	66	33	286.97379576078
20	68	34	310.83002688967
20	70	35	334.5799229622
20	72	36	359.09708286385
20	74	37	382.57354213475
20	76	38	406.85102593632
20	78	39	431.19896808754
20	80	40	454.91736055523
20	82	41	478.33800619451
20	84	42	502.0486392208
20	86	43	526.24298834336
20	88	44	549.95170345995
20	90	45	574.42378955401
20	92	46	598.64595743648
20	94	47	623.10178882493
20	96	48	646.93449700835
20	98	49	670.67193450743
20	100	50	694.70185493407
20	102	51	718.3011079912
20	104	52	742.17692805947
20	106	53	765.96797848868
20	108	54	790.25084616267
20	110	55	813.46603973894
20	112	56	836.57262589522
20	114	57	860.079170503
20	116	58	883.46000147672
20	118	59	907.75195854623
20	120	60	928.09677970777
20	122	61	941.25330879178
20	124	62	950.96886836401
20	126	63	953.91215581605
20	128	64	956.55903126781
20	130	65	957.96288712252
20	132	66	959.16941287865
20	134	67	960.68927808302
20	136	68	961.50335274374
20	138	69	962.744199903
20	140	70	964.96027421263
20	142	71	968.25132784384
20	144	72	972.43466702738
20	146	73	978.47737170991
20	148	74	987.17446831159
20	150	75	997.99518959604
20	152	76	1010.8832691318
20	154	77	1025.3132803895
20	156	78	1042.7044023054
20	158	79	1063.0530653408
20	160	80	1085.4481496993
29	56	28	5.754529403278
29	58	29	4.9858038120998
29	60	30	1.031036190352
29	62	31	3.9208490831598
29	64	32	9.9739360157494
29	66	33	2.5921328459627
29	68	34	4.7472361581515
29	70	35	5.8929539721019
29	72	36	0.973
29	74	37	0.973
29	76	38	2.6868912654799
29	78	39	1.471177427645
29	80	40	1.1999217912935
29	82	41	0.973
29	84	42	11.573447258835
29	86	43	5.1223596021913
29	88	44	0.973
29	90	45	5.5486615967892
29	92	46	3.1992162016918
29	94	47	1.2228830780368
29	96	48	0.973
29	98	49	5.8356617439497
29	100	50	2.3056108095785
29	102	51	2.6211026556574
29	104	52	5.7396862521069
29	106	53	7.0993733086915
29	108	54	5.0057711663212
29	110	55	0.973
29	112	56	9.6120059882473
29	114	57	0.973
29	116	58	8.6153501196121
29	118	59	7.6162833788266
29	120	60	0.973
29	122	61	0.973
29	124	62	0.973
29	126	63	0.973
29	128	64	0.973
29	130	65	0.973
29	132	66	0.973
29	134	67	1.3211147797597
29	136	68	1.229868586475
29	138	69	0.973
29	140	70	2.3117562374212
29	142	71	1.2892454196703
29	144	72	4.2800971428923
29	146	73	1.4278348248574
29	148	74	5.2772226442981
29	150	75	5.9048320441743
29	152	76	5.599264963543
29	154	77	6.4537745453694
29	156	78	8.3313587665536
29	158	79	8.2815385577773
29	160	80	9.694385645311
29	162	81	11.52888681597
29	164	82	19.146249762173
28	56	28	0.015538307838142
28	58	29	-0.081297066179104
28	60	30	-0.58373815915547
28	62	31	-0.19247061456554
28	64	32	0.58180507365614
28	66	33	-0.37649380008224
28	68	34	-0.08656050672289
28	70	35	0.063376347327566
28	72	36	-1.1479052585859
28	74	37	-3.3522543911727
28	76	38	-0.22141326615744
28	78	39	-0.40302847675774
28	80	40	-0.43730649018833
28	82	41	-2.0101358877243
28	84	42	1.3041248372691
28	86	43	0.2198644290868
28	88	44	-0.79929695010938
28	90	45	0.31391719398673
28	92	46	-0.078894788465291
28	94	47	-0.40471360215967
28	96	48	-0.90884115749073
28	98	49	0.41325783292119
28	100	50	-0.20004935198427
28	102	51	-0.14016287767769
28	104	52	0.39363848678163
28	106	53	0.59484157597554
28	108	54	0.22726806076492
28	110	55	-1.6977370483939
28	112	56	1.0562754194936
28	114	57	-1.2457880364508
28	116	58	0.90810929878238
28	118	59	0.68718933926644
28	120	60	-3.1222947419749
28	122	61	-8.2854146120001
28	124	62	-3.4731783124175
28	126	63	-4.5855011621074
28	128	64	-2.4877142473742
28	130	65	-0.16518304533781
28	132	66	-1.292684012852
28	134	67	0.46658056731899
28	136	68	0.14117035411866
28	138	69	-0.69752399520259
28	140	70	1.770746892646
28	142	71	0.082275713471295
28	144	72	2.4105883296976
28	146	73	0.050108088296838
28	148	74	2.1685677096248
28	150	75	1.9361207509646
28	152	76	1.5010268851183
28	154	77	1.5553731353721
28	156	78	1.8515649733599
28	158	79	1.6026887046173
28	160	80	1.7290314141428
28	162	81	1.8957380675711
28	164	82	2.9687893314986
27	54	27	31.846806130587
27	56	28	31.862344438425
27	58	29	31.781047372246
27	60	30	31.197309213091
27	62	31	31.004838598525
27	64	32	31.586643672181
27	66	33	31.210149872099
27	68	34	31.123589365376
27	70	35	31.186965712704
27	72	36	30.039060454118
27	74	37	26.686806062945
27	76	38	26.465392796788
27	78	39	26.06236432003
27	80	40	25.625057829841
27	82	41	23.614921942117
27	84	42	24.919046779386
27	86	43	25.138911208473
27	88	44	24.339614258364
27	90	45	24.65353145235
27	92	46	24.574636663885
27	94	47	24.169923061726
27	96	48	23.261081904235
27	98	49	23.674339737156
27	100	50	23.474290385172
27	102	51	23.334127507494
27	104	52	23.727765994276
27	106	53	24.322607570251
27	108	54	24.549875631016
27	110	55	22.852138582622
27	112	56	23.908414002116
27	114	57	22.662625965665
27	116	58	23.570735264447
27	118	59	24.257924603714
27	120	60	21.135629861739
27	122	61	12.850215249739
27	124	62	9.3770369373213
27	126	63	4.7915357752139
27	128	64	2.3038215278397
27	130	65	2.1386384825019
27	132	66	0.84595446964989
27	134	67	1.3125350369689
27	136	68	1.4537053910875
27	138	69	0.75618139588495
27	140	70	2.526928288531
27	142	71	2.6092040020023
27	144	72	5.0197923316999
27	146	73	5.0699004199967
27	148	74	7.2384681296215
27	150	75	9.1745888805861
27	152	76	10.675615765704
27	154	77	12.230988901077
27	156	78	14.082553874436
27	158	79	15.685242579054
27	160	80	17.414273993197
27	162	81	19.310012060768
27	164	82	22.278801392266
26	52	26	76.65
26	54	27	76.65
26	56	28	76.65
26	58	29	76.65
26	60	30	76.65
26	62	31	76.65
26	64	32	76.65
26	66	33	76.65
26	68	34	76.65
26	70	35	76.65
26	72	36	76.65
26	74	37	76.65
26	76	38	76.65
26	78	39	76.65
26	80	40	76.65
26	82	41	76.65
26	84	42	76.65
26	86	43	76.65
26	88	44	76.65
26	90	45	76.65
26	92	46	76.65
26	94	47	76.65
26	96	48	76.65
26	98	49	76.65
26	100	50	76.65
26	102	51	76.65
26	104	52	76.65
26	106	53	76.65
26	108	54	76.65
26	110	55	76.65
26	112	56	76.65
26	114	57	76.65
26	116	58	76.65
26	118	59	76.65
26	120	60	76.65
26	122	61	76.65
26	124	62	76.65
26	126	63	76.65
26	128	64	76.65
26	130	65	76.65
26	132	66	76.65
26	134	67	76.65
26	136	68	76.65
26	138	69	76.65
26	140	70	76.65
26	142	71	76.65
26	144	72	76.65
26	146	73	76.65
26	148	74	76.65
26	150	75	76.65
26	152	76	76.65
26	154	77	76.65
26	156	78	76.65
26	158	79	76.65
26	160	80	76.65
26	162	81	76.65
26	164	82	76.65
25	52	26	27.6
25	54	27	27.6
25	56	28	59.446806130587
25	58	29	91.309150569012
25	60	30	123.09019794126
25	62	31	154.28750715435
25	64	32	185.29234575287
25	66	33	216.87898942505
25	68	34	248.08913929715
25	70	35	279.21272866253
25	72	36	310.39969437523
25	74	37	340.43875482935
25	76	38	367.1255608923
25	78	39	393.59095368908
25	80	40	419.65331800911
25	82	41	445.27837583895
25	84	42	468.89329778107
25	86	43	493.81234456046
25	88	44	518.95125576893
25	90	45	543.2908700273
25	92	46	567.94440147965
25	94	47	592.51903814353
25	96	48	616.68896120526
25	98	49	639.95004310949
25	100	50	663.62438284665
25	102	51	687.09867323182
25	104	52	710.43280073931
25	106	53	734.16056673359
25	108	54	758.48317430384
25	110	55	783.03304993486
25	112	56	805.88518851748
25	114	57	829.79360251959
25	116	58	852.45622848526
25	118	59	876.02696374971
25	120	60	900.28488835342
25	122	61	921.42051821516
25	124	62	934.2707334649
25	126	63	943.64777040222
25	128	64	948.43930617743
25	130	65	950.74312770527
25	132	66	952.88176618777
25	134	67	953.72772065742
25	136	68	955.04025569439
25	138	69	956.49396108548
25	140	70	957.25014248137
25	142	71	959.7770707699
25	144	72	962.3862747719
25	146	73	967.4060671036
25	148	74	972.4759675236
25	150	75	979.71443565322
25	152	76	988.8890245338
25	154	77	999.56464029951
25	156	78	1011.7956292006
25	158	79	1025.878183075
25	160	80	1041.5634256541
25	162	81	1058.9776996473
25	164	82	1078.287711708
34	66	33	3.8659757209588
34	68	34	4.869130155239
34	70	35	6.6523318641192
34	72	36	4.0811594471718
34	74	37	4.973427140971
34	76	38	0.973
34	78	39	9.8094229342761
34	80	40	5.803967807327
34	82	41	0.973
34	84	42	1.4218253412069
34	86	43	4.5386884043025
34	88	44	3.1991087996304
34	90	45	7.0471629311923
34	92	46	5.713715884532
34	94	47	0.973
34	96	48	8.7284299901712
34	98	49	3.8946058523337
34	100	50	0.86172166417287
34	102	51	2.6352859038321
34	104	52	12.25064905928
34	106	53	2.9111613001241
34	108	54	1.0098376468133
34	110	55	3.9248963131872
34	112	56	4.4995090147579
34	114	57	2.688899999901
34	116	58	6.5705817322443
34	118	59	0.73545725645167
34	120	60	0.22843512601252
34	122	61	6.2573998185713
34	124	62	3.7842178628818
34	126	63	5.03282116667
34	128	64	1.7028617707608
34	130	65	10.277014855857
34	132	66	0.973
34	134	67	0.973
34	136	68	0.973
34	138	69	0.973
34	140	70	0.973
34	142	71	1.7684074574733
34	144	72	1.5615810245576
34	146	73	2.3547483804446
34	148	74	3.5357324102383
34	150	75	3.5031854421243
34	152	76	5.2738252918862
34	154	77	7.7232497887686
34	156	78	3.6744419908385
34	158	79	8.2817299882976
34	160	80	13.88359074412
34	162	81	7.3511057079975
34	164	82	12.519274921722
34	166	83	13.783611958895
34	168	84	18.497382951506
33	66	33	0.0067289869766682
33	68	34	0.16412850120105
33	70	35	0.43124269670807
33	72	36	0.018435291945934
33	74	37	0.15459434653167
33	76	38	-1.1266257794341
33	78	39	0.93837723357137
33	80	40	0.28226009791251
33	82	41	-0.85389557224698
33	84	42	-0.38619176892098
33	86	43	0.12753275607247
33	88	44	-0.091401830781251
33	90	45	0.51840081706177
33	92	46	0.28716616833117
33	94	47	-0.95614769076928
33	96	48	0.78443860646803
33	98	49	0.00048761896323413
33	100	50	-0.4827599383425
33	102	51	-0.18420785316266
33	104	52	1.2994702938013
33	106	53	-0.17324090225156
33	108	54	-0.46719461283647
33	110	55	0.0054913846543059
33	112	56	0.094795082230121
33	114	57	-0.19209125242196
33	116	58	0.41733392793685
33	118	59	-0.50856721645687
33	120	60	-0.583568209433
33	122	61	0.40319502982311
33	124	62	-0.0036615858552977
33	126	63	0.19318294117693
33	128	64	-0.34275834413711
33	130	65	0.99908281629905
33	132	66	-1.2119511715136
33	134	67	-5.1022056805334
33	136	68	-9.5058479297306
33	138	69	-7.9958452348411
33	140	70	-0.78272793503639
33	142	71	0.93662128103964
33	144	72	0.4536621942238
33	146	73	1.1005079541755
33	148	74	1.6005081714006
33	150	75	1.2432112897513
33	152	76	1.7849413255462
33	154	77	2.2808592290967
33	156	78	0.67142861706088
33	158	79	1.939028761466
33	160	80	2.9283628568519
33	162	81	1.15661508638
33	164	82	2.0648406189309
33	166	83	2.046678249375
33	168	84	2.5534143877449
32	64	32	25.286518999395
32	66	33	25.293247986372
32	68	34	25.457376487573
32	70	35	25.888619184281
32	72	36	25.907054476227
32	74	37	26.061648822758
32	76	38	24.935023043324
32	78	39	25.873400276896
32	80	40	26.155660374808
32	82	41	25.301764802561
32	84	42	24.91557303364
32	86	43	25.043105789713
32	88	44	24.951703958932
32	90	45	25.470104775993
32	92	46	25.757270944324
32	94	47	24.801123253555
32	96	48	25.585561860023
32	98	49	25.586049478986
32	100	50	25.103289540644
32	102	51	24.919081687481
32	104	52	26.218551981283
32	106	53	26.045311079031
32	108	54	25.578116466195
32	110	55	25.583607850849
32	112	56	25.678402933079
32	114	57	25.486311680657
32	116	58	25.903645608594
32	118	59	25.395078392137
32	120	60	24.811510182704
32	122	61	25.214705212527
32	124	62	25.211043626672
32	126	63	25.404226567849
32	128	64	25.061468223712
32	130	65	26.060551040011
32	132	66	24.848599868497
32	134	67	19.746394187964
32	136	68	10.240546258233
32	138	69	2.2447010233919
32	140	70	1.4619730883555
32	142	71	2.3985943693952
32	144	72	2.852256563619
32	146	73	3.9527645177945
32	148	74	5.553272689195
32	150	75	6.7964839789464
32	152	76	8.5814253044926
32	154	77	10.862284533589
32	156	78	11.53371315065
32	158	79	13.472741912116
32	160	80	16.401104768968
32	162	81	17.557719855348
32	164	82	19.622560474279
32	166	83	21.669238723654
32	168	84	24.222653111399
31	62	31	76.65
31	64	32	76.65
31	66	33	76.65
31	68	34	76.65
31	70	35	76.65
31	72	36	76.65
31	74	37	76.65
31	76	38	76.65
31	78	39	76.65
31	80	40	76.65
31	82	41	76.65
31	84	42	76.65
31	86	43	76.65
31	88	44	76.65
31	90	45	76.65
31	92	46	76.65
31	94	47	76.65
31	96	48	76.65
31	98	49	76.65
31	100	50	76.65
31	102	51	76.65
31	104	52	76.65
31	106	53	76.65
31	108	54	76.65
31	110	55	76.65
31	112	56	76.65
31	114	57	76.65
31	116	58	76.65
31	118	59	76.65
31	120	60	76.65
31	122	61	76.65
31	124	62	76.65
31	126	63	76.65
31	128	64	76.65
31	130	65	76.65
31	132	66	76.65
31	134	67	76.65
31	136	68	76.65
31	138	69	76.65
31	140	70	76.65
31	142	71	76.65
31	144	72	76.65
31	146	73	76.65
31	148	74	76.65
31	150	75	76.65
31	152	76	76.65
31	154	77	76.65
31	156	78	76.65
31	158	79	76.65
31	160	80	76.65
31	162	81	76.65
31	164	82	76.65
31	166	83	76.65
31	168	84	76.65
30	62	31	27.6
30	64	32	27.6
30	66	33	52.886518999395
30	68	34	78.179766985767
30	70	35	103.63714347334
30	72	36	129.52576265762
30	74	37	155.43281713385
30	76	38	181.49446595661
30	78	39	206.42948899993
30	80	40	232.30288927683
30	82	41	258.45854965163
30	84	42	283.7603144542
30	86	43	308.67588748784
30	88	44	333.71899327755
30	90	45	358.67069723648
30	92	46	384.14080201247
30	94	47	409.8980729568
30	96	48	434.69919621035
30	98	49	460.28475807038
30	100	50	485.87080754936
30	102	51	510.97409709001
30	104	52	535.89317877749
30	106	53	562.11173075877
30	108	54	588.1570418378
30	110	55	613.735158304
30	112	56	639.31876615484
30	114	57	664.99716908792
30	116	58	690.48348076858
30	118	59	716.38712637717
30	120	60	741.78220476931
30	122	61	766.59371495202
30	124	62	791.80842016454
30	126	63	817.01946379121
30	128	64	842.42369035906
30	130	65	867.48515858277
30	132	66	893.54570962279
30	134	67	918.39430949128
30	136	68	938.14070367925
30	138	69	948.38124993748
30	140	70	950.62595096087
30	142	71	952.08792404923
30	144	72	954.48651841862
30	146	73	957.33877498224
30	148	74	961.29153950004
30	150	75	966.84481218923
30	152	76	973.64129616818
30	154	77	982.22272147267
30	156	78	993.08500600626
30	158	79	1004.6187191569
30	160	80	1018.091461069
30	162	81	1034.492565838
30	164	82	1052.0502856933
30	166	83	1071.6728461676
30	168	84	1093.3420848913
39	76	38	0.73712323631422
39	78	39	1.3896159070603
39	80	40	7.3173596862876
39	82	41	2.119478329721
39	84	42	1.9386744159695
39	86	43	4.8955871524551
39	88	44	3.3095543103842
39	90	45	0.973
39	92	46	1.9099105514865
39	94	47	3.7005230725593
39	96	48	3.6470516809663
39	98	49	0.98433877433339
39	100	50	5.4812430677092
39	102	51	4.6893419190381
39	104	52	0.973
39	106	53	7.3100961465955
39	108	54	5.0524336982767
39	110	55	0.973
39	112	56	5.8430227174831
39	114	57	0.973
39	116	58	3.9906494689152
39	118	59	0.973
39	120	60	7.9096961099247
39	122	61	0.973
39	124	62	3.0195565602235
39	126	63	6.2414637945597
39	128	64	1.8934379418
39	130	65	1.8663445570524
39	132	66	0.973
39	134	67	8.2213719024999
39	136	68	0.973
39	138	69	0.973
39	140	70	6.7369324231651
39	142	71	1.9995911100095
39	144	72	6.450796796135
39	146	73	0.973
39	148	74	4.5422453909087
39	150	75	3.7192365633417
39	152	76	5.4528396166183
39	154	77	2.290067883869
39	156	78	0.973
39	158	79	4.395820320408
39	160	80	0.973
39	162	81	2.7580129009012
39	164	82	3.4989588841286
39	166	83	5.120977879673
39	168	84	0.85108780680619
39	170	85	3.9179511462063
39	172	86	1.9703837400989
39	174	87	5.9670092804586
39	176	88	0.973
39	178	89	7.9863012625896
38	76	38	-0.43818811245728
38	78	39	-0.3013278124854
38	80	40	0.84511111630127
38	82	41	-0.16961397102568
38	84	42	-0.20055549102835
38	86	43	0.37030611606315
38	88	44	0.05726610228885
38	90	45	-0.57725403900258
38	92	46	-0.19808275694959
38	94	47	0.15875198005233
38	96	48	0.14222746307496
38	98	49	-0.38471141410992
38	100	50	0.50225478142966
38	102	51	0.32844518031925
38	104	52	-1.4461341169663
38	106	53	0.88366261927877
38	108	54	0.40771611733362
38	110	55	-0.55318463954609
38	112	56	0.56304410286248
38	114	57	-0.83572133432608
38	116	58	0.2245796083007
38	118	59	-0.60216186591424
38	120	60	0.98853032430634
38	122	61	-0.59499559609685
38	124	62	0.033503429498523
38	126	63	0.65035055880435
38	128	64	-0.20749209076166
38	130	65	-0.2080962723121
38	132	66	-0.53017376584467
38	134	67	1.0357049996965
38	136	68	-0.73460998863447
38	138	69	-0.51730377052445
38	140	70	0.77579718595371
38	142	71	-0.17749327467754
38	144	72	0.68389477778692
38	146	73	-1.1438729676884
38	148	74	0.34666223265231
38	150	75	0.17076492263004
38	152	76	0.49454460572451
38	154	77	-0.12980744428933
38	156	78	-0.58956329268403
38	158	79	0.30449202947784
38	160	80	-0.47433481633198
38	162	81	-0.01158767240122
38	164	82	0.13666742329951
38	166	83	0.44602651137393
38	168	84	-0.40941785706673
38	170	85	0.21208287135232
38	172	86	-0.17997411405668
38	174	87	0.60241662932094
38	176	88	-0.86440043023322
38	178	89	0.99448754964396
37	74	37	21.058876605129
37	76	38	20.620688492672
37	78	39	20.319360680186
37	80	40	21.164471796487
37	82	41	20.994857825462
37	84	42	20.794302334433
37	86	43	21.164608450497
37	88	44	21.221874552785
37	90	45	20.644620513783
37	92	46	20.446537756833
37	94	47	20.605289736886
37	96	48	20.747517199961
37	98	49	20.362805785851
37	100	50	20.86506056728
37	102	51	21.1935057476
37	104	52	19.747371630633
37	106	53	20.631034249912
37	108	54	21.038750367246
37	110	55	20.4855657277
37	112	56	21.048609830562
37	114	57	20.212888496236
37	116	58	20.437468104537
37	118	59	19.835306238622
37	120	60	20.823836562929
37	122	61	20.228840966832
37	124	62	20.26234439633
37	126	63	20.912694955135
37	128	64	20.705202864373
37	130	65	20.497106592061
37	132	66	19.966932826216
37	134	67	21.002637825913
37	136	68	20.268027837278
37	138	69	19.750724066754
37	140	70	20.526521252708
37	142	71	20.34902797803
37	144	72	21.032922755817
37	146	73	19.889049788129
37	148	74	20.235712020781
37	150	75	20.406476943411
37	152	76	20.901021549135
37	154	77	20.771214104846
37	156	78	20.181650812162
37	158	79	20.48614284164
37	160	80	20.011808025308
37	162	81	20.000220352907
37	164	82	20.136887776206
37	166	83	20.58291428758
37	168	84	20.173496430513
37	170	85	20.385579301866
37	172	86	20.205605187809
37	174	87	20.80802181713
37	176	88	19.943621386897
37	178	89	20.938108936541
36	72	36	76.65
36	74	37	76.65
36	76	38	76.65
36	78	39	76.65
36	80	40	76.65
36	82	41	76.65
36	84	42	76.65
36	86	43	76.65
36	88	44	76.65
36	90	45	76.65
36	92	46	76.65
36	94	47	76.65
36	96	48	76.65
36	98	49	76.65
36	100	50	76.65
36	102	51	76.65
36	104	52	76.65
36	106	53	76.65
36	108	54	76.65
36	110	55	76.65
36	112	56	76.65
36	114	57	76.65
36	116	58	76.65
36	118	59	76.65
36	120	60	76.65
36	122	61	76.65
36	124	62	76.65
36	126	63	76.65
36	128	64	76.65
36	130	65	76.65
36	132	66	76.65
36	134	67	76.65
36	136	68	76.65
36	138	69	76.65
36	140	70	76.65
36	142	71	76.65
36	144	72	76.65
36	146	73	76.65
36	148	74	76.65
36	150	75	76.65
36	152	76	76.65
36	154	77	76.65
36	156	78	76.65
36	158	79	76.65
36	160	80	76.65
36	162	81	76.65
36	164	82	76.65
36	166	83	76.65
36	168	84	76.65
36	170	85	76.65
36	172	86	76.65
36	174	87	76.65
36	176	88	76.65
36	178	89	76.65
35	72	36	27.6
35	74	37	27.6
35	76	38	48.658876605129
35	78	39	69.2795650978
35	80	40	89.598925777987
35	82	41	110.76339757447
35	84	42	131.75825539994
35	86	43	152.55255773437
35	88	44	173.71716618487
35	90	45	194.93904073765
35	92	46	215.58366125143
35	94	47	236.03019900827
35	96	48	256.63548874515
35	98	49	277.38300594511
35	100	50	297.74581173096
35	102	51	318.61087229824
35	104	52	339.80437804584
35	106	53	359.55174967648
35	108	54	380.18278392639
35	110	55	401.22153429364
35	112	56	421.70710002133
35	114	57	442.7557098519
35	116	58	462.96859834813
35	118	59	483.40606645267
35	120	60	503.24137269129
35	122	61	524.06520925422
35	124	62	544.29405022105
35	126	63	564.55639461738
35	128	64	585.46908957252
35	130	65	606.17429243689
35	132	66	626.67139902895
35	134	67	646.63833185517
35	136	68	667.64096968108
35	138	69	687.90899751836
35	140	70	707.65972158511
35	142	71	728.18624283782
35	144	72	748.53527081585
35	146	73	769.56819357167
35	148	74	789.4572433598
35	150	75	809.69295538058
35	152	76	830.09943232399
35	154	77	851.00045387312
35	156	78	871.77166797797
35	158	79	891.95331879013
35	160	80	912.43946163177
35	162	81	932.45126965708
35	164	82	952.45149000999
35	166	83	972.58837778619
35	168	84	993.17129207377
35	170	85	1013.3447885043
35	172	86	1033.7303678062
35	174	87	1053.935972994
35	176	88	1074.7439948111
35	178	89	1094.687616198
44	86	43	6.1374001617388
44	88	44	3.6762054318944
44	90	45	6.0341875913163
44	92	46	2.6093679010173
44	94	47	0.973
44	96	48	9.0662131405596
44	98	49	2.2424283731054
44	100	50	0.973
44	102	51	0.973
44	104	52	1.2941989645413
44	106	53	0.973
44	108	54	3.9914243632753
44	110	55	0.973
44	112	56	5.3599458117701
44	114	57	5.1555767766841
44	116	58	0.973
44	118	59	7.9952977113303
44	120	60	0.973
44	122	61	12.683417818754
44	124	62	0.973
44	126	63	8.7714684838277
44	128	64	2.514029738747
44	130	65	3.0658843419954
44	132	66	6.479820569554
44	134	67	0.973
44	136	68	7.2669568328385
44	138	69	0.973
44	140	70	4.8949011023012
44	142	71	2.6233405545682
44	144	72	3.080418433563
44	146	73	12.589268287942
44	148	74	0.973
44	150	75	7.368152219405
44	152	76	6.2738491189026
44	154	77	3.445529162732
44	156	78	1.3345610452895
44	158	79	1.6956198937159
44	160	80	2.8749643422842
44	162	81	4.3547436406467
44	164	82	0.973
44	166	83	4.0983963455983
44	168	84	6.6379420195077
44	170	85	0.973
44	172	86	2.2839119552526
44	174	87	4.6167953138876
44	176	88	5.1596922806643
44	178	89	0.973
44	180	90	5.0232190698524
43	86	43	0.19699452503119
43	88	44	-0.14997472520918
43	90	45	0.1807910297066
43	92	46	-0.29991266538855
43	94	47	-0.92771272128448
43	96	48	0.65003760822583
43	98	49	-0.33597427932448
43	100	50	-2.7290591292382
43	102	51	-1.5214708693369
43	104	52	-0.37900790123871
43	106	53	-2.2780809835136
43	108	54	0.18346070838462
43	110	55	-0.55257402284957
43	112	56	0.45435967525188
43	114	57	0.3937279205347
43	116	58	-2.0099869547848
43	118	59	1.0165150436514
43	120	60	-0.86004183974972
43	122	61	1.8362544956358
43	124	62	-2.179975963991
43	126	63	1.1747833553768
43	128	64	-0.079502987562311
43	130	65	0.030678446053152
43	132	66	0.67291733886277
43	134	67	-1.5954610531797
43	136	68	0.87960981396047
43	138	69	-0.87526148236343
43	140	70	0.42522025695079
43	142	71	-0.04194522735191
43	144	72	0.050707524029267
43	146	73	1.7888949879549
43	148	74	-2.6610351061302
43	150	75	0.92999068731645
43	152	76	0.66100632490259
43	154	77	0.094469405114005
43	156	78	-0.31803261862181
43	158	79	-0.24022664584404
43	160	80	-0.00015334936757938
43	162	81	0.28736920118975
43	164	82	-1.0398507951002
43	166	83	0.27104118948726
43	168	84	0.74718546277016
43	170	85	-0.53335971161809
43	172	86	-0.11010959936984
43	174	87	0.35554181190377
43	176	88	0.4416846157187
43	178	89	-0.51819817428351
43	180	90	0.41974207442339
42	84	42	28.798798441959
42	86	43	28.99579296699
42	88	44	28.845818241781
42	90	45	29.026609271487
42	92	46	28.726696606099
42	94	47	27.798983884814
42	96	48	28.44902149304
42	98	49	28.113047213716
42	100	50	25.383988084477
42	102	51	23.862517215141
42	104	52	23.483509313902
42	106	53	21.205428330388
42	108	54	21.388889038773
42	110	55	20.836315015923
42	112	56	21.290674691175
42	114	57	21.68440261171
42	116	58	19.674415656925
42	118	59	20.690930700576
42	120	60	19.830888860827
42	122	61	21.667143356463
42	124	62	19.487167392472
42	126	63	20.661950747848
42	128	64	20.582447760286
42	130	65	20.613126206339
42	132	66	21.286043545202
42	134	67	19.690582492022
42	136	68	20.570192305983
42	138	69	19.694930823619
42	140	70	20.12015108057
42	142	71	20.078205853218
42	144	72	20.128913377247
42	146	73	21.917808365202
42	148	74	19.256773259072
42	150	75	20.186763946389
42	152	76	20.847770271291
42	154	77	20.942239676405
42	156	78	20.624207057783
42	158	79	20.383980411939
42	160	80	20.383827062572
42	162	81	20.671196263761
42	164	82	19.631345468661
42	166	83	19.902386658149
42	168	84	20.649572120919
42	170	85	20.116212409301
42	172	86	20.006102809931
42	174	87	20.361644621835
42	176	88	20.803329237553
42	178	89	20.28513106327
42	180	90	20.704873137693
41	82	41	76.65
41	84	42	76.65
41	86	43	76.65
41	88	44	76.65
41	90	45	76.65
41	92	46	76.65
41	94	47	76.65
41	96	48	76.65
41	98	49	76.65
41	100	50	76.65
41	102	51	76.65
41	104	52	76.65
41	106	53	76.65
41	108	54	76.65
41	110	55	76.65
41	112	56	76.65
41	114	57	76.65
41	116	58	76.65
41	118	59	76.65
41	120	60	76.65
41	122	61	76.65
41	124	62	76.65
41	126	63	76.65
41	128	64	76.65
41	130	65	76.65
41	132	66	76.65
41	134	67	76.65
41	136	68	76.65
41	138	69	76.65
41	140	70	76.65
41	142	71	76.65
41	144	72	76.65
41	146	73	76.65
41	148	74	76.65
41	150	75	76.65
41	152	76	76.65
41	154	77	76.65
41	156	78	76.65
41	158	79	76.65
41	160	80	76.65
41	162	81	76.65
41	164	82	76.65
41	166	83	76.65
41	168	84	76.65
41	170	85	76.65
41	172	86	76.65
41	174	87	76.65
41	176	88	76.65
41	178	89	76.65
41	180	90	76.65
40	82	41	27.6
40	84	42	27.6
40	86	43	56.398798441959
40	88	44	85.394591408949
40	90	45	114.24040965073
40	92	46	143.26701892222
40	94	47	171.99371552832
40	96	48	199.79269941313
40	98	49	228.24172090617
40	100	50	256.35476811989
40	102	51	281.73875620436
40	104	52	305.6012734195
40	106	53	329.08478273341
40	108	54	350.29021106379
40	110	55	371.67910010257
40	112	56	392.51541511849
40	114	57	413.80608980966
40	116	58	435.49049242137
40	118	59	455.1649080783
40	120	60	475.85583877888
40	122	61	495.6867276397
40	124	62	517.35387099617
40	126	63	536.84103838864
40	128	64	557.50298913649
40	130	65	578.08543689677
40	132	66	598.69856310311
40	134	67	619.98460664831
40	136	68	639.67518914033
40	138	69	660.24538144632
40	140	70	679.94031226994
40	142	71	700.06046335051
40	144	72	720.13866920372
40	146	73	740.26758258097
40	148	74	762.18539094617
40	150	75	781.44216420525
40	152	76	801.62892815163
40	154	77	822.47669842293
40	156	78	843.41893809933
40	158	79	864.04314515711
40	160	80	884.42712556905
40	162	81	904.81095263163
40	164	82	925.48214889539
40	166	83	945.11349436405
40	168	84	965.0158810222
40	170	85	985.66545314312
40	172	86	1005.7816655524
40	174	87	1025.7877683623
40	176	88	1046.1494129842
40	178	89	1066.9527422217
40	180	90	1087.237873285
49	96	48	2.9030584082569
49	98	49	15.328823635641
49	100	50	6.7314192349311
49	102	51	0.973
49	104	52	5.2882217432122
49	106	53	12.960689274582
49	108	54	1.8227594801166
49	110	55	5.916047090829
49	112	56	0.973
49	114	57	0.973
49	116	58	0.973
49	118	59	0.973
49	120	60	0.973
49	122	61	3.5101099424715
49	124	62	4.038872896579
49	126	63	0.973
49	128	64	10.429900965794
49	130	65	0.973
49	132	66	4.9594630626921
49	134	67	4.9665946438487
49	136	68	0.94171504680738
49	138	69	1.7199800960252
49	140	70	0.973
49	142	71	3.9388567584339
49	144	72	5.5160338181658
49	146	73	5.6283529426616
49	148	74	7.0887956333904
49	150	75	0.973
49	152	76	9.9881413426837
49	154	77	5.8079632838773
49	156	78	4.6589566028665
49	158	79	3.9801000844975
49	160	80	0.973
49	162	81	0.973
49	164	82	10.59785890533
49	166	83	0.973
49	168	84	8.1870935230261
49	170	85	2.623947733109
49	172	86	1.2848881179934
49	174	87	1.921582078787
49	176	88	5.002133051145
49	178	89	6.6038349871485
49	180	90	0.973
49	182	91	8.6182278869697
49	184	92	13.323488495566
48	96	48	-0.42849456577096
48	98	49	1.0061981094768
48	100	50	-0.0088635730789974
48	102	51	-1.2469660477946
48	104	52	-0.12315748434048
48	106	53	0.76760360912886
48	108	54	-0.55525777931325
48	110	55	-0.052887277740481
48	112	56	-3.6773768964399
48	114	57	-2.0969691020632
48	116	58	-2.5767624166517
48	118	59	-2.7950434792757
48	120	60	-1.0701482805714
48	122	61	0.07562086712959
48	124	62	0.16925960949417
48	126	63	-2.0401115215073
48	128	64	1.437735821199
48	130	65	-1.2523531010877
48	132	66	0.41777221862908
48	134	67	0.3980343917601
48	136	68	-0.39538976747343
48	138	69	-0.23284502893554
48	140	70	-0.56395796749497
48	142	71	0.23589897548322
48	144	72	0.53197057698238
48	146	73	0.52357869386883
48	148	74	0.75853239741782
48	150	75	-3.0800266821908
48	152	76	1.4723493129892
48	154	77	0.57568902844189
48	156	78	0.32927613349538
48	158	79	0.18746522204266
48	160	80	-0.57693065717496
48	162	81	-0.7595423766375
48	164	82	1.4666803079759
48	166	83	-2.2484113059171
48	168	84	1.0953883573148
48	170	85	-0.04482996986307
48	172	86	-0.31482487384425
48	174	87	-0.17758255356897
48	176	88	0.44679584918096
48	178	89	0.72612010368933
48	180	90	-0.90857135538419
48	182	91	1.109415882196
48	184	92	1.815059179673
47	94	47	34.552777803829
47	96	48	34.124283238058
47	98	49	35.130481347535
47	100	50	35.121617774456
47	102	51	33.874651726661
47	104	52	33.751494242321
47	106	53	34.51909785145
47	108	54	33.963840072136
47	110	55	33.910952794396
47	112	56	30.233575897956
47	114	57	28.136606795893
47	116	58	25.559844379241
47	118	59	22.764800899965
47	120	60	21.694652619394
47	122	61	21.770273486524
47	124	62	21.939533096018
47	126	63	19.89942157451
47	128	64	21.337157395709
47	130	65	20.084804294622
47	132	66	20.502576513251
47	134	67	20.900610905011
47	136	68	20.505221137537
47	138	69	20.272376108602
47	140	70	19.708418141107
47	142	71	19.94431711659
47	144	72	20.476287693572
47	146	73	20.999866387441
47	148	74	21.758398784859
47	150	75	18.678372102668
47	152	76	20.150721415658
47	154	77	20.726410444099
47	156	78	21.055686577595
47	158	79	21.243151799638
47	160	80	20.666221142463
47	162	81	19.906678765825
47	164	82	21.373359073801
47	166	83	19.124947767884
47	168	84	20.220336125199
47	170	85	20.175506155336
47	172	86	19.860681281491
47	174	87	19.683098727922
47	176	88	20.129894577103
47	178	89	20.856014680793
47	180	90	19.947443325408
47	182	91	21.056859207605
47	184	92	22.871918387278
46	92	46	76.65
46	94	47	76.65
46	96	48	76.65
46	98	49	76.65
46	100	50	76.65
46	102	51	76.65
46	104	52	76.65
46	106	53	76.65
46	108	54	76.65
46	110	55	76.65
46	112	56	76.65
46	114	57	76.65
46	116	58	76.65
46	118	59	76.65
46	120	60	76.65
46	122	61	76.65
46	124	62	76.65
46	126	63	76.65
46	128	64	76.65
46	130	65	76.65
46	132	66	76.65
46	134	67	76.65
46	136	68	76.65
46	138	69	76.65
46	140	70	76.65
46	142	71	76.65
46	144	72	76.65
46	146	73	76.65
46	148	74	76.65
46	150	75	76.65
46	152	76	76.65
46	154	77	76.65
46	156	78	76.65
46	158	79	76.65
46	160	80	76.65
46	162	81	76.65
46	164	82	76.65
46	166	83	76.65
46	168	84	76.65
46	170	85	76.65
46	172	86	76.65
46	174	87	76.65
46	176	88	76.65
46	178	89	76.65
46	180	90	76.65
46	182	91	76.65
46	184	92	76.65
45	92	46	27.6
45	94	47	27.6
45	96	48	62.152777803829
45	98	49	96.277061041887
45	100	50	131.40754238942
45	102	51	166.52916016388
45	104	52	200.40381189054
45	106	53	234.15530613286
45	108	54	268.67440398431
45	110	55	302.63824405645
45	112	56	336.54919685084
45	114	57	366.7827727488
45	116	58	394.91937954469
45	118	59	420.47922392393
45	120	60	443.2440248239
45	122	61	464.93867744329
45	124	62	486.70895092981
45	126	63	508.64848402583
45	128	64	528.54790560034
45	130	65	549.88506299605
45	132	66	569.96986729067
45	134	67	590.47244380392
45	136	68	611.37305470893
45	138	69	631.87827584647
45	140	70	652.15065195507
45	142	71	671.85907009618
45	144	72	691.80338721277
45	146	73	712.27967490634
45	148	74	733.27954129378
45	150	75	755.03794007864
45	152	76	773.71631218131
45	154	77	793.86703359697
45	156	78	814.59344404107
45	158	79	835.64913061866
45	160	80	856.8922824183
45	162	81	877.55850356076
45	164	82	897.46518232659
45	166	83	918.83854140039
45	168	84	937.96348916827
45	170	85	958.18382529347
45	172	86	978.35933144881
45	174	87	998.2200127303
45	176	88	1017.9031114582
45	178	89	1038.0330060353
45	180	90	1058.8890207161
45	182	91	1078.8364640415
45	184	92	1099.8933232491

