version 2
run General-15-20200211-12:44:42-39082
attr configname General
attr datetime 20200211-12:44:42
attr experiment General
attr inifile omnetpp.ini
attr iterationvars $0=15
attr iterationvarsf 15-
attr measurement $0=15
attr network scenario
attr processid 39082
attr repetition 0
attr replication #0
attr resultdir veins-runall-output
attr runnumber 15
attr seedset 15
param *.playgroundSizeX 10672m
param *.playgroundSizeY 7105m
param *.playgroundSizeZ 10000m
param *.annotations.draw false
param *.world.useTorus false
param *.world.use2D false
param *.manager.updateInterval 1s
param *.manager.host "\"localhost\""
param *.manager.port 9999
param *.manager.moduleType "\"org.car2x.veins.nodes.Car\""
param *.manager.moduleName "\"node\""
param *.manager.moduleDisplayString "\"\""
param *.manager.autoShutdown true
param *.manager.margin 25
param *.manager.launchConfig "xmldoc(\"sumo-launchd.launch.xml\")"
param *.manager.trafficLightModuleType "\"org.car2x.veins.nodes.TrafficLight\""
param *.manager.trafficLightModuleName "\"trafficLight\""
param *.manager.trafficLightModuleDisplayString default
param *.manager.trafficLightFilter "\"10\""
param *.manager.ignoreGuiCommands true
param *.trafficLight[*].mobility.x 0
param *.trafficLight[*].mobility.y 0
param *.trafficLight[*].mobility.z 3
param *.trafficLight[*].applType "\"org.car2x.veins.subprojects.veins_testsims.traci.TraCITrafficLightApp\""
param *.trafficLight[*].logicType "\"org.car2x.veins.subprojects.veins_testsims.traci.TraCITrafficLightTestLogic\""
param *.trafficLight[*].appl.headerLength "80 bit"
param *.trafficLight[*].appl.sendBeacons false
param *.trafficLight[*].appl.dataOnSch true
param *.connectionManager.sendDirect true
param *.connectionManager.maxInterfDist 2600m
param *.connectionManager.drawMaxIntfDist false
param *.**.nic.mac1609_4.useServiceChannel false
param *.**.nic.mac1609_4.txPower 20mW
param *.**.nic.mac1609_4.bitrate 18Mbps
param *.**.nic.phy80211p.minPowerLevel -110dBm
param *.**.nic.phy80211p.useNoiseFloor true
param *.**.nic.phy80211p.noiseFloor -98dBm
param *.**.nic.phy80211p.decider "xmldoc(\"config.xml\")"
param *.**.nic.phy80211p.analogueModels "xmldoc(\"config.xml\")"
param *.**.nic.phy80211p.usePropagationDelay true
param *.node[*].applType "\"org.car2x.veins.subprojects.veins_testsims.traci.TraCITestApp\""
param *.node[0].appl.testNumber 15
param *.node[*].appl.testNumber -1
param *.node[*].veinsmobilityType "\"org.car2x.veins.modules.mobility.traci.TraCIMobility\""
param *.node[*].veinsmobility.x 0
param *.node[*].veinsmobility.y 0
param *.node[*].veinsmobility.z 1.895
param *.node[*].veinsmobility.accidentCount 0
param *.node[*].veinsmobility.setHostSpeed true

vector 0 scenario.node[0].veinsmobility posx ETV
vector 1 scenario.node[0].veinsmobility posy ETV
vector 2 scenario.node[0].veinsmobility speed ETV
vector 3 scenario.node[0].veinsmobility acceleration ETV
vector 4 scenario.node[0].veinsmobility co2emission ETV
vector 5 scenario.node[1].veinsmobility posx ETV
vector 6 scenario.node[1].veinsmobility posy ETV
vector 7 scenario.node[1].veinsmobility speed ETV
vector 8 scenario.node[1].veinsmobility acceleration ETV
vector 9 scenario.node[1].veinsmobility co2emission ETV
vector 10 scenario.node[2].veinsmobility posx ETV
vector 11 scenario.node[2].veinsmobility posy ETV
vector 12 scenario.node[2].veinsmobility speed ETV
vector 13 scenario.node[2].veinsmobility acceleration ETV
vector 14 scenario.node[2].veinsmobility co2emission ETV
vector 15 scenario.node[3].veinsmobility posx ETV
vector 16 scenario.node[3].veinsmobility posy ETV
vector 17 scenario.node[3].veinsmobility speed ETV
vector 18 scenario.node[3].veinsmobility acceleration ETV
vector 19 scenario.node[3].veinsmobility co2emission ETV
vector 20 scenario.node[4].veinsmobility posx ETV
vector 21 scenario.node[4].veinsmobility posy ETV
vector 22 scenario.node[4].veinsmobility speed ETV
vector 23 scenario.node[4].veinsmobility acceleration ETV
vector 24 scenario.node[4].veinsmobility co2emission ETV
vector 25 scenario.node[5].veinsmobility posx ETV
vector 26 scenario.node[5].veinsmobility posy ETV
vector 27 scenario.node[5].veinsmobility speed ETV
vector 28 scenario.node[5].veinsmobility acceleration ETV
vector 29 scenario.node[5].veinsmobility co2emission ETV
vector 30 scenario.node[6].veinsmobility posx ETV
vector 31 scenario.node[6].veinsmobility posy ETV
vector 32 scenario.node[6].veinsmobility speed ETV
vector 33 scenario.node[6].veinsmobility acceleration ETV
vector 34 scenario.node[6].veinsmobility co2emission ETV
vector 35 scenario.node[7].veinsmobility posx ETV
vector 36 scenario.node[7].veinsmobility posy ETV
vector 37 scenario.node[7].veinsmobility speed ETV
vector 38 scenario.node[7].veinsmobility acceleration ETV
vector 39 scenario.node[7].veinsmobility co2emission ETV
vector 40 scenario.node[8].veinsmobility posx ETV
vector 41 scenario.node[8].veinsmobility posy ETV
vector 42 scenario.node[8].veinsmobility speed ETV
vector 43 scenario.node[8].veinsmobility acceleration ETV
vector 44 scenario.node[8].veinsmobility co2emission ETV
9	16	8	0.973
9	18	9	7.571291812718
9	20	10	5.5542453148332
9	22	11	1.4446197809318
9	24	12	8.6315642222256
9	26	13	9.2060826741665
9	28	14	0.973
9	30	15	5.2489198220867
9	32	16	7.1687562163273
9	34	17	0.973
9	36	18	6.9480686769379
9	38	19	8.8579526330423
9	40	20	1.393928211888
9	42	21	8.2398834073704
9	44	22	7.6306723667609
9	46	23	4.2028164459895
9	48	24	-0.071892173752675
9	50	25	1.2870117926916
9	52	26	10.368813933513
9	54	27	6.5199012956322
9	56	28	5.7030773608943
9	58	29	0.973
9	60	30	3.863437302193
9	62	31	11.027256408771
9	64	32	8.1767519295294
9	66	33	0.98654654063178
9	68	34	3.1789142730335
9	70	35	0.85270495148895
9	72	36	12.092594897105
9	74	37	1.606732939453
9	76	38	1.5167159832925
9	78	39	10.081044838065
9	80	40	3.5901547221702
9	82	41	2.5664515626103
9	84	42	5.5122715547223
9	86	43	2.3467555429042
9	88	44	10.7882149438
8	16	8	-0.89912858465686
8	18	9	0.44805449608248
8	20	10	0.14435671095271
8	22	11	-0.4477252420038
8	24	12	0.58708500838839
8	26	13	0.63133426685818
8	28	14	-1.0425417660736
8	30	15	0.1067264751764
8	32	16	0.37020253634546
8	34	17	-0.83901198150124
8	36	18	0.36283537116833
8	38	19	0.6079941970529
8	40	20	-0.46267451299354
8	42	21	0.51538926071953
8	44	22	0.40517952258233
8	46	23	-0.08062615559902
8	48	24	-0.68100293946918
8	50	25	-0.47141472506337
8	52	26	0.82356644805986
8	54	27	0.25436424650252
8	56	28	0.13136080303229
8	58	29	-1.288658154197
8	60	30	-0.081923894234933
8	62	31	0.92324440763332
8	64	32	0.48240846942645
8	66	33	-0.53113030199893
8	68	34	-0.20612035389058
8	70	35	-0.53552201518323
8	72	36	1.0570896458812
8	74	37	-0.43808835558593
8	76	38	-0.44074191909749
8	78	39	0.77513791888487
8	80	40	-0.15504761959892
8	82	41	-0.29476078238804
8	84	42	0.13075266627129
8	86	43	-0.32156901131384
8	88	44	0.86154521314893
7	14	7	28.609053899346
7	16	8	27.709925314689
7	18	9	28.157979810772
7	20	10	28.302336521724
7	22	11	27.854611279721
7	24	12	28.441696288109
7	26	13	29.073030554967
7	28	14	28.030488788894
7	30	15	28.13721526407
7	32	16	28.507417800415
7	34	17	27.668405818914
7	36	18	28.031241190083
7	38	19	28.639235387135
7	40	20	28.176560874142
7	42	21	28.691950134861
7	44	22	29.097129657444
7	46	23	29.016503501845
7	48	24	28.335500562376
7	50	25	27.864085837312
7	52	26	28.687652285372
7	54	27	28.942016531875
7	56	28	29.073377334907
7	58	29	27.78471918071
7	60	30	27.702795286475
7	62	31	28.626039694108
7	64	32	29.108448163535
7	66	33	28.577317861536
7	68	34	28.371197507645
7	70	35	27.835675492462
7	72	36	28.892765138343
7	74	37	28.454676782757
7	76	38	28.01393486366
7	78	39	28.789072782545
7	80	40	28.634025162946
7	82	41	28.339264380558
7	84	42	28.470017046829
7	86	43	28.148448035515
7	88	44	29.009993248664
6	12	6	76.65
6	14	7	76.65
6	16	8	76.65
6	18	9	76.65
6	20	10	76.65
6	22	11	76.65
6	24	12	76.65
6	26	13	76.65
6	28	14	76.65
6	30	15	76.65
6	32	16	76.65
6	34	17	76.65
6	36	18	76.65
6	38	19	76.65
6	40	20	76.65
6	42	21	76.65
6	44	22	76.65
6	46	23	76.65
6	48	24	76.65
6	50	25	76.65
6	52	26	76.65
6	54	27	76.65
6	56	28	76.65
6	58	29	76.65
6	60	30	76.65
6	62	31	76.65
6	64	32	76.65
6	66	33	76.65
6	68	34	76.65
6	70	35	76.65
6	72	36	76.65
6	74	37	76.65
6	76	38	76.65
6	78	39	76.65
6	80	40	76.65
6	82	41	76.65
6	84	42	76.65
6	86	43	76.65
6	88	44	76.65
5	12	6	27.6
5	14	7	27.6
5	16	8	56.209053899346
5	18	9	83.918979214035
5	20	10	112.07695902481
5	22	11	140.37929554653
5	24	12	168.23390682625
5	26	13	196.67560311436
5	28	14	225.74863366933
5	30	15	253.77912245822
5	32	16	281.91633772229
5	34	17	310.42375552271
5	36	18	338.09216134162
5	38	19	366.1234025317
5	40	20	394.76263791884
5	42	21	422.93919879298
5	44	22	451.63114892784
5	46	23	480.72827858529
5	48	24	509.74478208713
5	50	25	538.08028264951
5	52	26	565.94436848682
5	54	27	594.63202077219
5	56	28	623.57403730407
5	58	29	652.64741463897
5	60	30	680.43213381968
5	62	31	708.13492910616
5	64	32	736.76096880027
5	66	33	765.8694169638
5	68	34	794.44673482534
5	70	35	822.81793233298
5	72	36	850.65360782544
5	74	37	879.54637296379
5	76	38	908.00104974654
5	78	39	936.0149846102
5	80	40	964.80405739275
5	82	41	993.43808255569
5	84	42	1021.7773469363
5	86	43	1050.2473639831
5	88	44	1078.3958120186
vector 45 scenario.node[9].veinsmobility posx ETV
vector 46 scenario.node[9].veinsmobility posy ETV
vector 47 scenario.node[9].veinsmobility speed ETV
vector 48 scenario.node[9].veinsmobility acceleration ETV
vector 49 scenario.node[9].veinsmobility co2emission ETV
4	6	3	9.0549579066719
4	8	4	8.4988778463559
4	10	5	0.046631045706452
4	12	6	1.346729538445
4	14	7	6.8698411864162
4	16	8	6.3845112230278
4	18	9	10.609141425341
4	20	10	-0.62763525208726
4	22	11	9.4819023524904
4	24	12	4.4429678264677
4	26	13	-0.10558168561576
4	28	14	11.802268687823
4	30	15	5.4601311759271
4	32	16	0.92545498520847
4	34	17	5.8794977887355
4	36	18	6.1640655057657
4	38	19	3.4203111609862
4	40	20	10.69111669374
4	42	21	0.973
4	44	22	9.3490425168236
4	46	23	0.973
4	48	24	0.973
4	50	25	6.8185234894305
4	52	26	8.9470065445178
4	54	27	10.313249947691
4	56	28	8.6994977636046
4	58	29	13.016871699759
4	60	30	13.924914941531
4	62	31	10.889449787516
4	64	32	14.941970489737
4	66	33	0.973
4	68	34	8.956644025682
4	70	35	12.016073716082
4	72	36	13.592973492404
4	74	37	19.773895789552
4	76	38	21.21089344653
4	78	39	23.705619041672
4	80	40	14.007192649217
4	82	41	11.990083108536
4	84	42	2.1611107442588
4	86	43	10.679502266985
4	88	44	-0.29475619104966
4	90	45	7.890468430189
4	92	46	3.7991991254343
4	94	47	0.1737301141895
4	96	48	12.270622039167
3	6	3	0.52293095912319
3	8	4	0.42359790159389
3	10	5	-0.69673392002005
3	12	6	-0.50619142258074
3	14	7	0.25186112383381
3	16	8	0.1763841798529
3	18	9	0.71072384552099
3	20	10	-0.7868874395499
3	22	11	0.57219625858124
3	24	12	-0.10559434723109
3	26	13	-0.71066696522757
3	28	14	0.88155823771376
3	30	15	0.024184075067751
3	32	16	-0.57467688911129
3	34	17	0.10187313426286
3	36	18	0.13466655404773
3	38	19	-0.23182501236442
3	40	20	0.72010953607969
3	42	21	-7.7209597386542
3	44	22	0.99003156891558
3	46	23	-9.7815913607906
3	48	24	-9.81
3	50	25	2.9308562683873
3	52	26	2.8855375632411
3	54	27	2.6589913875796
3	56	28	1.8301218064735
3	58	29	2.5215416585561
3	60	30	2.3423861627234
3	62	31	1.5326656558318
3	64	32	2.0506581425676
3	66	33	-9.81
3	68	34	1.8298493104521
3	70	35	2.2513044514926
3	72	36	2.2563400526997
3	74	37	2.9886853499338
3	76	38	2.7992557006655
3	78	39	2.7868333618389
3	80	40	1.2634992427427
3	82	41	0.91510820807889
3	84	42	-0.4056365552824
3	86	43	0.71707845409401
3	88	44	-0.74252155283466
3	90	45	0.36312700272538
3	92	46	-0.18601305386983
3	94	47	-0.66896398121025
3	96	48	0.95107904530596
2	4	2	29.997433819196
2	6	3	30.520364778319
2	8	4	30.943962679913
2	10	5	30.247228759893
2	12	6	29.741037337312
2	14	7	29.992898461146
2	16	8	30.169282640999
2	18	9	30.88000648652
2	20	10	30.09311904697
2	22	11	30.665315305551
2	24	12	30.55972095832
2	26	13	29.849053993093
2	28	14	30.730612230806
2	30	15	30.754796305874
2	32	16	30.180119416763
2	34	17	30.281992551026
2	36	18	30.416659105073
2	38	19	30.184834092709
2	40	20	30.904943628789
2	42	21	23.183983890134
2	44	22	24.17401545905
2	46	23	14.39242409826
2	48	24	4.5824240982595
2	50	25	7.5132803666468
2	52	26	10.398817929888
2	54	27	13.057809317467
2	56	28	14.887931123941
2	58	29	17.409472782497
2	60	30	19.75185894522
2	62	31	21.284524601052
2	64	32	23.33518274362
2	66	33	13.52518274362
2	68	34	15.355032054072
2	70	35	17.606336505565
2	72	36	19.862676558264
2	74	37	22.851361908198
2	76	38	25.650617608864
2	78	39	28.437450970702
2	80	40	29.700950213445
2	82	41	30.616058421524
2	84	42	30.210421866242
2	86	43	30.927500320336
2	88	44	30.184978767501
2	90	45	30.548105770226
2	92	46	30.362092716357
2	94	47	29.693128735146
2	96	48	30.644207780452
1	2	1	76.65
1	4	2	76.65
1	6	3	76.65
1	8	4	76.65
1	10	5	76.65
1	12	6	76.65
1	14	7	76.65
1	16	8	76.65
1	18	9	76.65
1	20	10	76.65
1	22	11	76.65
1	24	12	76.65
1	26	13	76.65
1	28	14	76.65
1	30	15	76.65
1	32	16	76.65
1	34	17	76.65
1	36	18	76.65
1	38	19	76.65
1	40	20	76.65
1	42	21	76.65
1	44	22	73.744387227225
1	46	23	49.578619052542
1	48	24	35.186194954282
1	50	25	30.603770856023
1	52	26	26.65
1	54	27	26.65
1	56	28	26.65
1	58	29	26.65
1	60	30	26.65
1	62	31	26.65
1	64	32	32.69992421069
1	66	33	56.03510695431
1	68	34	69.56028969793
1	70	35	76.65
1	72	36	76.65
1	74	37	76.65
1	76	38	76.65
1	78	39	76.65
1	80	40	76.65
1	82	41	76.65
1	84	42	76.65
1	86	43	76.65
1	88	44	76.65
1	90	45	76.65
1	92	46	76.65
1	94	47	76.65
1	96	48	76.65
0	2	1	27.6
0	4	2	27.6
0	6	3	57.597433819196
0	8	4	88.117798597515
0	10	5	119.06176127743
0	12	6	149.30899003732
0	14	7	179.05002737463
0	16	8	209.04292583578
0	18	9	239.21220847678
0	20	10	270.0922149633
0	22	11	300.18533401027
0	24	12	330.85064931582
0	26	13	361.41037027414
0	28	14	391.25942426723
0	30	15	421.99003649804
0	32	16	452.74483280391
0	34	17	482.92495222068
0	36	18	513.2069447717
0	38	19	543.62360387678
0	40	20	573.80843796948
0	42	21	604.71338159827
0	44	22	626.59282728611
0	46	23	626.65
0	48	24	626.65
0	50	25	626.65
0	52	26	631.40950951062
0	54	27	641.80832744051
0	56	28	654.86613675798
0	58	29	669.75406788192
0	60	30	687.16354066442
0	62	31	706.91539960964
0	64	32	723.35
0	66	33	723.35
0	68	34	723.35
0	70	35	733.265321752
0	72	36	750.87165825757
0	74	37	770.73433481583
0	76	38	793.58569672403
0	78	39	819.23631433289
0	80	40	847.67376530359
0	82	41	877.37471551704
0	84	42	907.99077393856
0	86	43	938.20119580481
0	88	44	969.12869612514
0	90	45	999.31367489264
0	92	46	1029.8617806629
0	94	47	1060.2238733792
0	96	48	1089.9170021144
14	26	13	0.973
14	28	14	4.3729879805779
14	30	15	8.8381248682011
14	32	16	6.1443901092633
14	34	17	0.15586116913647
14	36	18	6.3080158955641
14	38	19	4.6751250531466
14	40	20	7.0759005603274
14	42	21	0.47102006867537
14	44	22	5.7960442460378
14	46	23	3.3909990412772
14	48	24	3.6091145658986
14	50	25	6.1730644351122
14	52	26	2.5518715447115
14	54	27	3.6003740355283
14	56	28	11.453308106654
14	58	29	0.973
14	60	30	1.8910044658606
14	62	31	9.2614485980119
14	64	32	3.8380167674443
14	66	33	1.1088404374297
14	68	34	11.560910168178
14	70	35	0.973
14	72	36	12.430896896048
14	74	37	0.973
14	76	38	11.509675148152
14	78	39	7.779423998781
14	80	40	2.4662475293932
14	82	41	5.9789694892218
14	84	42	0.973
14	86	43	11.976162339161
14	88	44	1.1011250748862
14	90	45	7.7812037811748
14	92	46	3.6360046522576
14	94	47	2.2594736756806
14	96	48	6.4123025478834
14	98	49	0.973
14	100	50	11.204117938511
13	26	13	-1.0121632965747
13	28	14	0.014476087060757
13	30	15	0.6544062285684
13	32	16	0.24133810924832
13	34	17	-0.63323444430716
13	36	18	0.28271973493975
13	38	19	0.036917676916346
13	40	20	0.3756853613304
13	42	21	-0.58749160193838
13	44	22	0.20473181270063
13	46	23	-0.14969052001834
13	48	24	-0.11298538965639
13	50	25	0.26115354057401
13	52	26	-0.27218583819922
13	54	27	-0.11009380524047
13	56	28	1.0031779732089
13	58	29	-0.89114320732187
13	60	30	-0.36281619407237
13	62	31	0.7172758692177
13	64	32	-0.087725587072782
13	66	33	-0.48545344825834
13	68	34	1.0253108883044
13	70	35	-0.91773413890041
13	72	36	1.1354617764009
13	74	37	-1.4079023557199
13	76	38	1.0299477987639
13	78	39	0.45435345161241
13	80	40	-0.30785499501508
13	82	41	0.19818659825251
13	84	42	-0.95575129275676
13	86	43	1.0635402618209
13	88	44	-0.50385496532544
13	90	45	0.45731448428705
13	92	46	-0.14038894081023
13	94	47	-0.33230139012448
13	96	48	0.26833292318042
13	98	49	-1.005589268636
13	100	50	0.97239099978469
12	24	12	28.185867935272
12	26	13	27.173704638697
12	28	14	27.188180725758
12	30	15	27.842586954326
12	32	16	28.083925063575
12	34	17	27.450690619267
12	36	18	27.733410354207
12	38	19	27.770328031123
12	40	20	28.146013392454
12	42	21	27.558521790515
12	44	22	27.763253603216
12	46	23	27.613563083198
12	48	24	27.500577693541
12	50	25	27.761731234115
12	52	26	27.489545395916
12	54	27	27.379451590676
12	56	28	28.382629563885
12	58	29	27.491486356563
12	60	30	27.12867016249
12	62	31	27.845946031708
12	64	32	27.758220444635
12	66	33	27.272766996377
12	68	34	28.298077884681
12	70	35	27.380343745781
12	72	36	28.515805522182
12	74	37	27.107903166462
12	76	38	28.137850965226
12	78	39	28.592204416838
12	80	40	28.284349421823
12	82	41	28.482536020076
12	84	42	27.526784727319
12	86	43	28.59032498914
12	88	44	28.086470023814
12	90	45	28.543784508101
12	92	46	28.403395567291
12	94	47	28.071094177167
12	96	48	28.339427100347
12	98	49	27.333837831711
12	100	50	28.306228831496
11	22	11	76.65
11	24	12	76.65
11	26	13	76.65
11	28	14	76.65
11	30	15	76.65
11	32	16	76.65
11	34	17	76.65
11	36	18	76.65
11	38	19	76.65
11	40	20	76.65
11	42	21	76.65
11	44	22	76.65
11	46	23	76.65
11	48	24	76.65
11	50	25	76.65
11	52	26	76.65
11	54	27	76.65
11	56	28	76.65
11	58	29	76.65
11	60	30	76.65
11	62	31	76.65
11	64	32	76.65
11	66	33	76.65
11	68	34	76.65
11	70	35	76.65
11	72	36	76.65
11	74	37	76.65
11	76	38	76.65
11	78	39	76.65
11	80	40	76.65
11	82	41	76.65
11	84	42	76.65
11	86	43	76.65
11	88	44	76.65
11	90	45	76.65
11	92	46	76.65
11	94	47	76.65
11	96	48	76.65
11	98	49	76.65
11	100	50	76.65
10	22	11	27.6
10	24	12	27.6
10	26	13	55.785867935272
10	28	14	82.959572573969
10	30	15	110.14775329973
10	32	16	137.99034025405
10	34	17	166.07426531763
10	36	18	193.52495593689
10	38	19	221.2583662911
10	40	20	249.02869432223
10	42	21	277.17470771468
10	44	22	304.73322950519
10	46	23	332.49648310841
10	48	24	360.11004619161
10	50	25	387.61062388515
10	52	26	415.37235511927
10	54	27	442.86190051518
10	56	28	470.24135210586
10	58	29	498.62398166974
10	60	30	526.1154680263
10	62	31	553.2441381888
10	64	32	581.0900842205
10	66	33	608.84830466514
10	68	34	636.12107166152
10	70	35	664.4191495462
10	72	36	691.79949329198
10	74	37	720.31529881416
10	76	38	747.42320198062
10	78	39	775.56105294585
10	80	40	804.15325736269
10	82	41	832.43760678451
10	84	42	860.92014280458
10	86	43	888.4469275319
10	88	44	917.03725252104
10	90	45	945.12372254486
10	92	46	973.66750705296
10	94	47	1002.0709026203
10	96	48	1030.1419967974
10	98	49	1058.4814238978
10	100	50	1085.8152617295
19	36	18	0.973
19	38	19	8.7656023505817
19	40	20	2.8067614496698
19	42	21	2.4722530214755
19	44	22	6.1995125269225
19	46	23	5.1887010820362
19	48	24	0.57091125970782
19	50	25	4.4369048993526
19	52	26	6.9145395049439
19	54	27	0.38250473711102
19	56	28	5.8641351389334
19	58	29	8.1089315714804
19	60	30	3.0251732716807
19	62	31	5.9013711644349
19	64	32	3.1493186757696
19	66	33	1.447709497637
19	68	34	9.7662920073525
19	70	35	-0.52820618425796
19	72	36	7.4307821900583
19	74	37	-0.26314758624878
19	76	38	13.474512201954
19	78	39	0.973
19	80	40	9.6195465769937
19	82	41	1.1139873665464
19	84	42	7.1609025700065
19	86	43	0.973
19	88	44	8.9507844875976
19	90	45	7.332279315904
19	92	46	5.3108818193679
19	94	47	0.973
19	96	48	13.534816598956
19	98	49	0.973
19	100	50	6.1941150496454
19	102	51	9.3043846262227
19	104	52	5.1813406041148
19	106	53	0.973
19	108	54	11.439573321583
19	110	55	0.973
18	36	18	-1.0027814763598
18	38	19	0.6573272900423
18	40	20	-0.23075939028058
18	42	21	-0.27363085106481
18	44	22	0.28272506373469
18	46	23	0.12425474915653
18	48	24	-0.56181455100887
18	50	25	0.031846217229031
18	52	26	0.391742648324
18	54	27	-0.58810459147207
18	56	28	0.24871918000281
18	58	29	0.55960003193468
18	60	30	-0.19821544387378
18	62	31	0.22647401026916
18	64	32	-0.1808928726241
18	66	33	-0.42830911232159
18	68	34	0.79419417993631
18	70	35	-0.73237656767014
18	72	36	0.46091382892337
18	74	37	-0.68884672655258
18	76	38	1.3163176212693
18	78	39	-0.78532940230798
18	80	40	0.75090647803154
18	82	41	-0.4926191662671
18	84	42	0.39367909147404
18	86	43	-1.1543467990123
18	88	44	0.68806953483727
18	90	45	0.42147204943467
18	92	46	0.11680546298157
18	94	47	-1.2886357532116
18	96	48	1.3271742666839
18	98	49	-1.3001260320889
18	100	50	0.29437607713044
18	102	51	0.72207479376812
18	104	52	0.10376351641025
18	106	53	-0.80223134346306
18	108	54	1.0158291470725
18	110	55	-0.98189240845386
17	34	17	27.968599276575
17	36	18	26.965817800215
17	38	19	27.623145090257
17	40	20	27.392385699977
17	42	21	27.118754848912
17	44	22	27.401479912647
17	46	23	27.525734661803
17	48	24	26.963920110794
17	50	25	26.995766328023
17	52	26	27.387508976347
17	54	27	26.799404384875
17	56	28	27.048123564878
17	58	29	27.607723596813
17	60	30	27.409508152939
17	62	31	27.635982163208
17	64	32	27.455089290584
17	66	33	27.026780178263
17	68	34	27.820974358199
17	70	35	27.088597790529
17	72	36	27.549511619452
17	74	37	26.860664892899
17	76	38	28.176982514169
17	78	39	27.391653111861
17	80	40	28.142559589892
17	82	41	27.649940423625
17	84	42	28.043619515099
17	86	43	26.889272716087
17	88	44	27.577342250924
17	90	45	27.998814300359
17	92	46	28.11561976334
17	94	47	26.826984010129
17	96	48	28.154158276813
17	98	49	26.854032244724
17	100	50	27.148408321854
17	102	51	27.870483115622
17	104	52	27.974246632033
17	106	53	27.17201528857
17	108	54	28.187844435642
17	110	55	27.205952027188
16	32	16	76.65
16	34	17	76.65
16	36	18	76.65
16	38	19	76.65
16	40	20	76.65
16	42	21	76.65
16	44	22	76.65
16	46	23	76.65
16	48	24	76.65
16	50	25	76.65
16	52	26	76.65
16	54	27	76.65
16	56	28	76.65
16	58	29	76.65
16	60	30	76.65
16	62	31	76.65
16	64	32	76.65
16	66	33	76.65
16	68	34	76.65
16	70	35	76.65
16	72	36	76.65
16	74	37	76.65
16	76	38	76.65
16	78	39	76.65
16	80	40	76.65
16	82	41	76.65
16	84	42	76.65
16	86	43	76.65
16	88	44	76.65
16	90	45	76.65
16	92	46	76.65
16	94	47	76.65
16	96	48	76.65
16	98	49	76.65
16	100	50	76.65
16	102	51	76.65
16	104	52	76.65
16	106	53	76.65
16	108	54	76.65
16	110	55	76.65
15	32	16	27.6
15	34	17	27.6
15	36	18	55.568599276575
15	38	19	82.53441707679
15	40	20	110.15756216705
15	42	21	137.54994786702
15	44	22	164.66870271594
15	46	23	192.07018262858
15	48	24	219.59591729039
15	50	25	246.55983740118
15	52	26	273.5556037292
15	54	27	300.94311270555
15	56	28	327.74251709043
15	58	29	354.79064065531
15	60	30	382.39836425212
15	62	31	409.80787240506
15	64	32	437.44385456827
15	66	33	464.89894385885
15	68	34	491.92572403711
15	70	35	519.74669839531
15	72	36	546.83529618584
15	74	37	574.38480780529
15	76	38	601.24547269819
15	78	39	629.42245521236
15	80	40	656.81410832422
15	82	41	684.95666791411
15	84	42	712.60660833774
15	86	43	740.65022785284
15	88	44	767.53950056892
15	90	45	795.11684281985
15	92	46	823.11565712021
15	94	47	851.23127688355
15	96	48	878.05826089368
15	98	49	906.21241917049
15	100	50	933.06645141521
15	102	51	960.21485973707
15	104	52	988.08534285269
15	106	53	1016.0595894847
15	108	54	1043.2316047733
15	110	55	1071.4194492089
24	46	23	1.7198140054505
24	48	24	6.1081315522163
24	50	25	0.45128873086585
24	52	26	3.9248539072026
24	54	27	5.9903169423355
24	56	28	5.5287536501706
24	58	29	0.973
24	60	30	6.9005996942308
24	62	31	0.63551902889744
24	64	32	6.2605383721301
24	66	33	0.973
24	68	34	7.5420850485266
24	70	35	0.973
24	72	36	11.811932117491
24	74	37	0.973
24	76	38	1.7851376226039
24	78	39	10.392072964978
24	80	40	0.973
24	82	41	1.745994452582
24	84	42	2.0419565334504
24	86	43	8.7533123702628
24	88	44	5.1921189301963
24	90	45	4.3959947610159
24	92	46	1.768243271352
24	94	47	4.9884050512692
24	96	48	0.973
24	98	49	6.8036728284997
24	100	50	4.0506659834386
24	102	51	4.4843835085003
24	104	52	5.0693959719078
24	106	53	4.5758780223664
24	108	54	1.3057498636085
24	110	55	2.6522043025489
24	112	56	5.2984275274127
24	114	57	5.9657330584892
24	116	58	3.1977142476819
24	118	59	0.973
24	120	60	4.0672038891292
24	122	61	7.9080639078181
24	124	62	0.973
24	126	63	3.5748533645159
24	128	64	9.3806506302237
24	130	65	0.973
24	132	66	7.0633944019931
24	134	67	1.0359624935136
23	46	23	-0.30073112924583
23	48	24	0.45402796100825
23	50	25	-0.52526372484863
23	52	26	0.090403794078156
23	54	27	0.43355912924744
23	56	28	0.3361811946379
23	58	29	-0.91208067757543
23	60	30	0.59132538351696
23	62	31	-0.49308057501912
23	64	32	0.48051058023702
23	66	33	-0.64709407940973
23	68	34	0.70043158822227
23	70	35	-0.71973387699109
23	72	36	1.3806626497535
23	74	37	-1.0407006307505
23	76	38	-0.28552295663394
23	78	39	1.1546452429611
23	80	40	-0.62718908954412
23	82	41	-0.29774682840798
23	84	42	-0.23933204147033
23	86	43	0.8949139440665
23	88	44	0.26842668454628
23	90	45	0.12743186764419
23	92	46	-0.3108863462694
23	94	47	0.23150520923082
23	96	48	-1.3372159833089
23	98	49	0.58496512274724
23	100	50	0.097852063598111
23	102	51	0.16651489469223
23	104	52	0.25605938548688
23	106	53	0.16423183993902
23	108	54	-0.38590885838494
23	110	55	-0.14815299259499
23	112	56	0.29882652545348
23	114	57	0.3930231006816
23	116	58	-0.073654469568282
23	118	59	-0.96514462935738
23	120	60	0.10819701931905
23	122	61	0.73513708845712
23	124	62	-1.053137519164
23	126	63	0.031929343007505
23	128	64	0.98918219015468
23	130	65	-1.2042200511787
23	132	66	0.62813141033985
23	134	67	-0.42073313717265
22	44	22	23.648041684041
22	46	23	23.347310554796
22	48	24	23.801338515804
22	50	25	23.276074790955
22	52	26	23.366478585033
22	54	27	23.800037714281
22	56	28	24.136218908919
22	58	29	23.224138231343
22	60	30	23.81546361486
22	62	31	23.322383039841
22	64	32	23.802893620078
22	66	33	23.155799540668
22	68	34	23.856231128891
22	70	35	23.1364972519
22	72	36	24.517159901653
22	74	37	23.476459270903
22	76	38	23.190936314269
22	78	39	24.34558155723
22	80	40	23.718392467686
22	82	41	23.420645639278
22	84	42	23.181313597807
22	86	43	24.076227541874
22	88	44	24.34465422642
22	90	45	24.472086094064
22	92	46	24.161199747795
22	94	47	24.392704957026
22	96	48	23.055488973717
22	98	49	23.640454096464
22	100	50	23.738306160062
22	102	51	23.904821054755
22	104	52	24.160880440241
22	106	53	24.32511228018
22	108	54	23.939203421795
22	110	55	23.791050429201
22	112	56	24.089876954654
22	114	57	24.482900055336
22	116	58	24.409245585767
22	118	59	23.44410095641
22	120	60	23.552297975729
22	122	61	24.287435064186
22	124	62	23.234297545022
22	126	63	23.26622688803
22	128	64	24.255409078184
22	130	65	23.051189027006
22	132	66	23.679320437345
22	134	67	23.258587300173
21	42	21	76.65
21	44	22	76.65
21	46	23	76.65
21	48	24	76.65
21	50	25	76.65
21	52	26	76.65
21	54	27	76.65
21	56	28	76.65
21	58	29	76.65
21	60	30	76.65
21	62	31	76.65
21	64	32	76.65
21	66	33	76.65
21	68	34	76.65
21	70	35	76.65
21	72	36	76.65
21	74	37	76.65
21	76	38	76.65
21	78	39	76.65
21	80	40	76.65
21	82	41	76.65
21	84	42	76.65
21	86	43	76.65
21	88	44	76.65
21	90	45	76.65
21	92	46	76.65
21	94	47	76.65
21	96	48	76.65
21	98	49	76.65
21	100	50	76.65
21	102	51	76.65
21	104	52	76.65
21	106	53	76.65
21	108	54	76.65
21	110	55	76.65
21	112	56	76.65
21	114	57	76.65
21	116	58	76.65
21	118	59	76.65
21	120	60	76.65
21	122	61	76.65
21	124	62	76.65
21	126	63	76.65
21	128	64	76.65
21	130	65	76.65
21	132	66	76.65
21	134	67	76.65
20	42	21	27.6
20	44	22	27.6
20	46	23	51.248041684041
20	48	24	74.595352238837
20	50	25	98.396690754641
20	52	26	121.6727655456
20	54	27	145.03924413063
20	56	28	168.83928184491
20	58	29	192.97550075383
20	60	30	216.19963898517
20	62	31	240.01510260003
20	64	32	263.33748563987
20	66	33	287.14037925995
20	68	34	310.29617880062
20	70	35	334.15240992951
20	72	36	357.28890718141
20	74	37	381.80606708306
20	76	38	405.28252635397
20	78	39	428.47346266824
20	80	40	452.81904422547
20	82	41	476.53743669315
20	84	42	499.95808233243
20	86	43	523.13939593024
20	88	44	547.21562347211
20	90	45	571.56027769853
20	92	46	596.0323637926
20	94	47	620.19356354039
20	96	48	644.58626849742
20	98	49	667.64175747113
20	100	50	691.2822115676
20	102	51	715.02051772766
20	104	52	738.92533878241
20	106	53	763.08621922266
20	108	54	787.41133150284
20	110	55	811.35053492463
20	112	56	835.14158535383
20	114	57	859.23146230849
20	116	58	883.71436236382
20	118	59	908.12360794959
20	120	60	931.567708906
20	122	61	955.12000688173
20	124	62	979.40744194591
20	126	63	1002.6417394909
20	128	64	1025.907966379
20	130	65	1050.1633754571
20	132	66	1073.2145644842
20	134	67	1096.8938849215
29	56	28	5.754529403278
29	58	29	4.9858038120998
29	60	30	1.031036190352
29	62	31	3.9208490831598
29	64	32	9.9739360157494
29	66	33	2.5921328459627
29	68	34	6.3291471048379
29	70	35	0.90433458758265
29	72	36	0.973
29	74	37	3.8251670327525
29	76	38	0.973
29	78	39	0.973
29	80	40	10.723491919808
29	82	41	0.973
29	84	42	3.2701342174882
29	86	43	0.6478553219017
29	88	44	8.4214062865408
29	90	45	2.9900900860972
29	92	46	5.4241232862034
29	94	47	0.973
29	96	48	3.2645022011167
29	98	49	2.0611179506633
29	100	50	1.4626896878716
29	102	51	5.4975014643781
29	104	52	6.5585605917182
29	106	53	7.0937043552723
29	108	54	1.3011769380678
29	110	55	3.0131695585473
29	112	56	0.93063663457224
29	114	57	4.9061382205345
29	116	58	0.95901248160506
29	118	59	12.66017675222
29	120	60	0.973
29	122	61	4.6420842113573
29	124	62	9.8760833142629
29	126	63	0.973
29	128	64	7.5121924679771
29	130	65	11.01563711335
29	132	66	0.973
29	134	67	8.4238773364448
29	136	68	0.973
28	56	28	0.015538307838142
28	58	29	-0.081297066179104
28	60	30	-0.58373815915547
28	62	31	-0.19247061456554
28	64	32	0.58180507365614
28	66	33	-0.37649380008224
28	68	34	0.11503520887345
28	70	35	-0.59002997214281
28	72	36	-1.9118304577427
28	74	37	-0.12334546713602
28	76	38	-2.3645153751943
28	78	39	-2.3478525056812
28	80	40	1.1449030853525
28	82	41	-0.67329729376698
28	84	42	-0.060972274469595
28	86	43	-0.49933774199797
28	88	44	0.7946690344578
28	90	45	-0.11435102277278
28	92	46	0.28290508581586
28	94	47	-1.0249149859183
28	96	48	-0.041520666129141
28	98	49	-0.24518455252716
28	100	50	-0.34354476895937
28	102	51	0.35946408571639
28	104	52	0.51629011297885
28	106	53	0.57378222983366
28	108	54	-0.39313370681499
28	110	55	-0.097243968704039
28	112	56	-0.44719194489952
28	114	57	0.23736256983782
28	116	58	-0.4388067086308
28	118	59	1.477759603165
28	120	60	-1.5139162986782
28	122	61	0.20359195606561
28	124	62	1.0368880893461
28	126	63	-2.5039585655938
28	128	64	0.75397813595455
28	130	65	1.2700746132874
28	132	66	-0.73964939288962
28	134	67	0.82076950305806
28	136	68	-1.5464212929072
27	54	27	31.846806130587
27	56	28	31.862344438425
27	58	29	31.781047372246
27	60	30	31.197309213091
27	62	31	31.004838598525
27	64	32	31.586643672181
27	66	33	31.210149872099
27	68	34	31.325185080972
27	70	35	30.73515510883
27	72	36	28.823324651087
27	74	37	28.699979183951
27	76	38	26.335463808756
27	78	39	23.987611303075
27	80	40	25.132514388428
27	82	41	24.459217094661
27	84	42	24.398244820191
27	86	43	23.898907078193
27	88	44	24.693576112651
27	90	45	24.579225089878
27	92	46	24.862130175694
27	94	47	23.837215189776
27	96	48	23.795694523647
27	98	49	23.550509971119
27	100	50	23.20696520216
27	102	51	23.566429287876
27	104	52	24.082719400855
27	106	53	24.656501630689
27	108	54	24.263367923874
27	110	55	24.16612395517
27	112	56	23.71893201027
27	114	57	23.956294580108
27	116	58	23.517487871477
27	118	59	24.995247474642
27	120	60	23.481331175964
27	122	61	23.68492313203
27	124	62	24.721811221376
27	126	63	22.217852655782
27	128	64	22.971830791737
27	130	65	24.241905405024
27	132	66	23.502256012135
27	134	67	24.323025515193
27	136	68	22.776604222285
26	52	26	76.65
26	54	27	76.65
26	56	28	76.65
26	58	29	76.65
26	60	30	76.65
26	62	31	76.65
26	64	32	76.65
26	66	33	76.65
26	68	34	76.65
26	70	35	76.65
26	72	36	76.65
26	74	37	76.65
26	76	38	76.65
26	78	39	76.65
26	80	40	76.65
26	82	41	76.65
26	84	42	76.65
26	86	43	76.65
26	88	44	76.65
26	90	45	76.65
26	92	46	76.65
26	94	47	76.65
26	96	48	76.65
26	98	49	76.65
26	100	50	76.65
26	102	51	76.65
26	104	52	76.65
26	106	53	76.65
26	108	54	76.65
26	110	55	76.65
26	112	56	76.65
26	114	57	76.65
26	116	58	76.65
26	118	59	76.65
26	120	60	76.65
26	122	61	76.65
26	124	62	76.65
26	126	63	76.65
26	128	64	76.65
26	130	65	76.65
26	132	66	76.65
26	134	67	76.65
26	136	68	76.65
25	52	26	27.6
25	54	27	27.6
25	56	28	59.446806130587
25	58	29	91.309150569012
25	60	30	123.09019794126
25	62	31	154.28750715435
25	64	32	185.29234575287
25	66	33	216.87898942505
25	68	34	248.08913929715
25	70	35	279.41432437813
25	72	36	310.14947948696
25	74	37	338.97280413804
25	76	38	367.67278332199
25	78	39	394.00824713075
25	80	40	417.99585843382
25	82	41	443.12837282225
25	84	42	467.58758991691
25	86	43	491.9858347371
25	88	44	515.8847418153
25	90	45	540.57831792795
25	92	46	565.15754301783
25	94	47	590.01967319352
25	96	48	613.8568883833
25	98	49	637.65258290694
25	100	50	661.20309287806
25	102	51	684.41005808022
25	104	52	707.9764873681
25	106	53	732.05920676895
25	108	54	756.71570839964
25	110	55	780.97907632352
25	112	56	805.14520027869
25	114	57	828.86413228896
25	116	58	852.82042686907
25	118	59	876.33791474054
25	120	60	901.33316221519
25	122	61	924.81449339115
25	124	62	948.49941652318
25	126	63	973.22122774456
25	128	64	995.43908040034
25	130	65	1018.4109111921
25	132	66	1042.6528165971
25	134	67	1066.1550726092
25	136	68	1090.4780981244
34	66	33	3.8659757209588
34	68	34	4.869130155239
34	70	35	6.6523318641192
34	72	36	4.0811594471718
34	74	37	4.973427140971
34	76	38	0.973
34	78	39	9.8094229342761
34	80	40	3.2421860456858
34	82	41	6.5046071594608
34	84	42	0.973
34	86	43	1.4218253412069
34	88	44	10.705045593214
34	90	45	0.973
34	92	46	7.0471629311923
34	94	47	5.713715884532
34	96	48	6.3703943110106
34	98	49	0.53017418395225
34	100	50	3.8946058523337
34	102	51	0.86172166417287
34	104	52	11.086700234466
34	106	53	2.9111613001241
34	108	54	1.0098376468133
34	110	55	3.9248963131872
34	112	56	3.6069994475665
34	114	57	2.5541013104546
34	116	58	1.9314012446045
34	118	59	7.4791612801221
34	120	60	-0.2242243965835
34	122	61	8.6069561126051
34	124	62	0.973
34	126	63	5.7628226299309
34	128	64	8.1607125631719
34	130	65	0.23549292149332
34	132	66	4.4795450051944
34	134	67	5.1064844947617
34	136	68	6.8354653275335
34	138	69	4.9018421409191
34	140	70	0.973
34	142	71	9.4296810193319
34	144	72	0.973
34	146	73	6.5462375069853
33	66	33	0.0067289869766682
33	68	34	0.16412850120105
33	70	35	0.43124269670807
33	72	36	0.018435291945934
33	74	37	0.15459434653167
33	76	38	-1.1266257794341
33	78	39	0.93837723357137
33	80	40	-0.11115059559233
33	82	41	0.39341069350485
33	84	42	-0.85389557224698
33	86	43	-0.38619176892098
33	88	44	1.0729086025385
33	90	45	-1.0367776772473
33	92	46	0.51840081706177
33	94	47	0.28716616833117
33	96	48	0.37341697281227
33	98	49	-0.54512605711352
33	100	50	0.00048761896323413
33	102	51	-0.4827599383425
33	104	52	1.1152624406386
33	106	53	-0.17324090225156
33	108	54	-0.46719461283647
33	110	55	0.0054913846543059
33	112	56	-0.044490612228401
33	114	57	-0.20953008171637
33	116	58	-0.30403478513472
33	118	59	0.580601796275
33	120	60	-0.66062649199739
33	122	61	0.75691185286269
33	124	62	-0.865519272862
33	126	63	0.32445897452999
33	128	64	0.67624454770703
33	130	65	-0.58825385186356
33	132	66	0.10487160540652
33	134	67	0.19851902697701
33	136	68	0.45407219720073
33	138	69	0.13954503822606
33	140	70	-0.77450496051461
33	142	71	0.85260412457865
33	144	72	-1.2320792439859
33	146	73	0.43890267144889
32	64	32	25.286518999395
32	66	33	25.293247986372
32	68	34	25.457376487573
32	70	35	25.888619184281
32	72	36	25.907054476227
32	74	37	26.061648822758
32	76	38	24.935023043324
32	78	39	25.873400276896
32	80	40	25.762249681303
32	82	41	26.155660374808
32	84	42	25.301764802561
32	86	43	24.91557303364
32	88	44	25.988481636179
32	90	45	24.951703958932
32	92	46	25.470104775993
32	94	47	25.757270944324
32	96	48	26.130687917137
32	98	49	25.585561860023
32	100	50	25.586049478986
32	102	51	25.103289540644
32	104	52	26.218551981283
32	106	53	26.045311079031
32	108	54	25.578116466195
32	110	55	25.583607850849
32	112	56	25.53911723862
32	114	57	25.329587156904
32	116	58	25.025552371769
32	118	59	25.606154168044
32	120	60	24.945527676047
32	122	61	25.70243952891
32	124	62	24.836920256048
32	126	63	25.161379230578
32	128	64	25.837623778285
32	130	65	25.249369926421
32	132	66	25.354241531828
32	134	67	25.552760558805
32	136	68	26.006832756005
32	138	69	26.146377794231
32	140	70	25.371872833717
32	142	71	26.224476958295
32	144	72	24.99239771431
32	146	73	25.431300385758
31	62	31	76.65
31	64	32	76.65
31	66	33	76.65
31	68	34	76.65
31	70	35	76.65
31	72	36	76.65
31	74	37	76.65
31	76	38	76.65
31	78	39	76.65
31	80	40	76.65
31	82	41	76.65
31	84	42	76.65
31	86	43	76.65
31	88	44	76.65
31	90	45	76.65
31	92	46	76.65
31	94	47	76.65
31	96	48	76.65
31	98	49	76.65
31	100	50	76.65
31	102	51	76.65
31	104	52	76.65
31	106	53	76.65
31	108	54	76.65
31	110	55	76.65
31	112	56	76.65
31	114	57	76.65
31	116	58	76.65
31	118	59	76.65
31	120	60	76.65
31	122	61	76.65
31	124	62	76.65
31	126	63	76.65
31	128	64	76.65
31	130	65	76.65
31	132	66	76.65
31	134	67	76.65
31	136	68	76.65
31	138	69	76.65
31	140	70	76.65
31	142	71	76.65
31	144	72	76.65
31	146	73	76.65
30	62	31	27.6
30	64	32	27.6
30	66	33	52.886518999395
30	68	34	78.179766985767
30	70	35	103.63714347334
30	72	36	129.52576265762
30	74	37	155.43281713385
30	76	38	181.49446595661
30	78	39	206.42948899993
30	80	40	232.30288927683
30	82	41	258.06513895813
30	84	42	284.22079933294
30	86	43	309.5225641355
30	88	44	334.43813716914
30	90	45	360.42661880532
30	92	46	385.37832276425
30	94	47	410.84842754024
30	96	48	436.60569848457
30	98	49	462.7363864017
30	100	50	488.32194826173
30	102	51	513.90799774071
30	104	52	539.01128728136
30	106	53	565.22983926264
30	108	54	591.27515034167
30	110	55	616.85326680787
30	112	56	642.43687465871
30	114	57	667.97599189734
30	116	58	693.30557905424
30	118	59	718.33113142601
30	120	60	743.93728559405
30	122	61	768.8828132701
30	124	62	794.58525279901
30	126	63	819.42217305506
30	128	64	844.58355228563
30	130	65	870.42117606392
30	132	66	895.67054599034
30	134	67	921.02478752217
30	136	68	946.57754808097
30	138	69	972.58438083698
30	140	70	998.73075863121
30	142	71	1024.1026314649
30	144	72	1050.3271084232
30	146	73	1075.3195061375
39	76	38	0.73712323631422
39	78	39	1.3896159070603
39	80	40	7.3173596862876
39	82	41	2.119478329721
39	84	42	1.9386744159695
39	86	43	4.8955871524551
39	88	44	3.3095543103842
39	90	45	0.973
39	92	46	1.9099105514865
39	94	47	0.73854978924076
39	96	48	5.8395130384695
39	98	49	3.6470516809663
39	100	50	0.98433877433339
39	102	51	5.7465497141349
39	104	52	0.973
39	106	53	2.6481328422678
39	108	54	7.3100961465955
39	110	55	2.6228497157923
39	112	56	0.973
39	114	57	2.9199392424642
39	116	58	4.4121905058949
39	118	59	1.5068832013012
39	120	60	5.9378432991832
39	122	61	0.973
39	124	62	4.4634594181742
39	126	63	6.2414637945597
39	128	64	1.8934379418
39	130	65	1.8663445570524
39	132	66	2.9213220417316
39	134	67	0.89791406087269
39	136	68	2.9741970852205
39	138	69	4.4992047556782
39	140	70	2.425265228708
39	142	71	1.1179583150442
39	144	72	8.9410548434391
39	146	73	0.973
39	148	74	4.786693299855
39	150	75	7.2886418617468
39	152	76	0.78465493813028
39	154	77	0.973
39	156	78	3.0677815566281
39	158	79	3.4670396140075
39	160	80	7.9906771409392
39	162	81	2.5243914163222
39	164	82	0.973
39	166	83	4.0465793824584
39	168	84	1.6500017747645
39	170	85	6.2025733786
39	172	86	0.973
39	174	87	5.3494059064504
39	176	88	7.4100381895995
39	178	89	2.2987597321051
38	76	38	-0.43818811245728
38	78	39	-0.3013278124854
38	80	40	0.84511111630127
38	82	41	-0.16961397102568
38	84	42	-0.20055549102835
38	86	43	0.37030611606315
38	88	44	0.05726610228885
38	90	45	-0.57725403900258
38	92	46	-0.19808275694959
38	94	47	-0.430737793562
38	96	48	0.58948977361433
38	98	49	0.14222746307496
38	100	50	-0.38471141410992
38	102	51	0.55202437809203
38	104	52	-1.141012736829
38	106	53	-0.026445796480402
38	108	54	0.88366261927877
38	110	55	-0.057298524887301
38	112	56	-0.70767187722959
38	114	57	0.025712013244629
38	116	58	0.32111263519619
38	118	59	-0.27004000532907
38	120	60	0.61244448891375
38	122	61	-0.62213833874557
38	124	62	0.32918975525536
38	126	63	0.65035055880435
38	128	64	-0.20749209076166
38	130	65	-0.2080962723121
38	132	66	0.0052926189964637
38	134	67	-0.39885818772018
38	136	68	0.028696292429231
38	138	69	0.32676853844896
38	140	70	-0.091233288520016
38	142	71	-0.35208276822232
38	144	72	1.1622481149388
38	146	73	-1.3937335561495
38	148	74	0.39953344396781
38	150	75	0.84918495558668
38	152	76	-0.42841925891116
38	154	77	-0.84391375654377
38	156	78	0.05913303012494
38	158	79	0.13723439304158
38	160	80	0.99428879830521
38	162	81	-0.085778230335563
38	164	82	-0.7133680251427
38	166	83	0.23805866972543
38	168	84	-0.24450963700656
38	170	85	0.6501808486646
38	172	86	-0.95708040939644
38	174	87	0.50582724949345
38	176	88	0.86027337738778
38	178	89	-0.13619402144104
37	74	37	21.058876605129
37	76	38	20.620688492672
37	78	39	20.319360680186
37	80	40	21.164471796487
37	82	41	20.994857825462
37	84	42	20.794302334433
37	86	43	21.164608450497
37	88	44	21.221874552785
37	90	45	20.644620513783
37	92	46	20.446537756833
37	94	47	20.015799963271
37	96	48	20.605289736886
37	98	49	20.747517199961
37	100	50	20.362805785851
37	102	51	20.914830163943
37	104	52	19.773817427114
37	106	53	19.747371630633
37	108	54	20.631034249912
37	110	55	20.573735725025
37	112	56	19.866063847795
37	114	57	19.89177586104
37	116	58	20.212888496236
37	118	59	19.942848490907
37	120	60	20.555292979821
37	122	61	19.933154641075
37	124	62	20.26234439633
37	126	63	20.912694955135
37	128	64	20.705202864373
37	130	65	20.497106592061
37	132	66	20.502399211057
37	134	67	20.103541023337
37	136	68	20.132237315767
37	138	69	20.459005854215
37	140	70	20.367772565695
37	142	71	20.015689797473
37	144	72	21.177937912412
37	146	73	19.784204356262
37	148	74	20.18373780023
37	150	75	21.032922755817
37	152	76	20.604503496906
37	154	77	19.760589740362
37	156	78	19.819722770487
37	158	79	19.956957163529
37	160	80	20.951245961834
37	162	81	20.865467731498
37	164	82	20.152099706355
37	166	83	20.390158376081
37	168	84	20.145648739074
37	170	85	20.795829587739
37	172	86	19.838749178343
37	174	87	20.344576427836
37	176	88	21.204849805224
37	178	89	21.068655783783
36	72	36	76.65
36	74	37	76.65
36	76	38	76.65
36	78	39	76.65
36	80	40	76.65
36	82	41	76.65
36	84	42	76.65
36	86	43	76.65
36	88	44	76.65
36	90	45	76.65
36	92	46	76.65
36	94	47	76.65
36	96	48	76.65
36	98	49	76.65
36	100	50	76.65
36	102	51	76.65
36	104	52	76.65
36	106	53	76.65
36	108	54	76.65
36	110	55	76.65
36	112	56	76.65
36	114	57	76.65
36	116	58	76.65
36	118	59	76.65
36	120	60	76.65
36	122	61	76.65
36	124	62	76.65
36	126	63	76.65
36	128	64	76.65
36	130	65	76.65
36	132	66	76.65
36	134	67	76.65
36	136	68	76.65
36	138	69	76.65
36	140	70	76.65
36	142	71	76.65
36	144	72	76.65
36	146	73	76.65
36	148	74	76.65
36	150	75	76.65
36	152	76	76.65
36	154	77	76.65
36	156	78	76.65
36	158	79	76.65
36	160	80	76.65
36	162	81	76.65
36	164	82	76.65
36	166	83	76.65
36	168	84	76.65
36	170	85	76.65
36	172	86	76.65
36	174	87	76.65
36	176	88	76.65
36	178	89	76.65
35	72	36	27.6
35	74	37	27.6
35	76	38	48.658876605129
35	78	39	69.2795650978
35	80	40	89.598925777987
35	82	41	110.76339757447
35	84	42	131.75825539994
35	86	43	152.55255773437
35	88	44	173.71716618487
35	90	45	194.93904073765
35	92	46	215.58366125143
35	94	47	236.03019900827
35	96	48	256.04599897154
35	98	49	276.65128870842
35	100	50	297.39880590838
35	102	51	317.76161169424
35	104	52	338.67644185818
35	106	53	358.45025928529
35	108	54	378.19763091593
35	110	55	398.82866516584
35	112	56	419.40240089086
35	114	57	439.26846473866
35	116	58	459.1602405997
35	118	59	479.37312909593
35	120	60	499.31597758684
35	122	61	519.87127056666
35	124	62	539.80442520774
35	126	63	560.06676960407
35	128	64	580.9794645592
35	130	65	601.68466742357
35	132	66	622.18177401563
35	134	67	642.68417322669
35	136	68	662.78771425003
35	138	69	682.9199515658
35	140	70	703.37895742001
35	142	71	723.74672998571
35	144	72	743.76241978318
35	146	73	764.94035769559
35	148	74	784.72456205185
35	150	75	804.90829985208
35	152	76	825.9412226079
35	154	77	846.54572610481
35	156	78	866.30631584517
35	158	79	886.12603861566
35	160	80	906.08299577919
35	162	81	927.03424174102
35	164	82	947.89970947252
35	166	83	968.05180917887
35	168	84	988.44196755495
35	170	85	1008.587616294
35	172	86	1029.3834458818
35	174	87	1049.2221950601
35	176	88	1069.5667714879
35	178	89	1090.7716212932
44	86	43	6.1374001617388
44	88	44	3.6762054318944
44	90	45	6.0341875913163
44	92	46	2.6093679010173
44	94	47	0.973
44	96	48	9.0662131405596
44	98	49	1.1828893105173
44	100	50	0.973
44	102	51	0.973
44	104	52	0.973
44	106	53	0.973
44	108	54	1.7996365030663
44	110	55	2.6688172610252
44	112	56	3.947035952128
44	114	57	0.973
44	116	58	0.973
44	118	59	1.7164432477373
44	120	60	7.6265526176467
44	122	61	7.3898819582905
44	124	62	0.973
44	126	63	10.335470113823
44	128	64	2.5865178618397
44	130	65	3.1137531468221
44	132	66	6.5106171800282
44	134	67	0.973
44	136	68	2.595758489544
44	138	69	4.0235592688998
44	140	70	4.7600095679665
44	142	71	0.973
44	144	72	0.75065004175415
44	146	73	11.717915798691
44	148	74	0.973
44	150	75	2.2187954065715
44	152	76	9.8033063891736
44	154	77	1.5955008712145
44	156	78	0.973
44	158	79	0.973
44	160	80	7.163767163109
44	162	81	7.3608608608296
44	164	82	2.8392033543826
44	166	83	1.5114291813529
44	168	84	2.4004310429402
44	170	85	0.973
44	172	86	9.7719352873146
44	174	87	0.973
44	176	88	7.6418773201422
44	178	89	4.1884707650545
44	180	90	2.4228461590224
43	86	43	0.19699452503119
43	88	44	-0.14997472520918
43	90	45	0.1807910297066
43	92	46	-0.29991266538855
43	94	47	-0.92771272128448
43	96	48	0.65003760822583
43	98	49	-0.4890099904723
43	100	50	-2.43397544249
43	102	51	-1.6491058538298
43	104	52	-1.248024230255
43	106	53	-1.489284550897
43	108	54	-0.23088216456282
43	110	55	-0.056644563567353
43	112	56	0.18957864388079
43	114	57	-0.76459761033952
43	116	58	-0.57900702743915
43	118	59	-0.21648017806084
43	120	60	0.9622569760535
43	122	61	0.84976117266306
43	124	62	-2.1721210067629
43	126	63	1.4938014810515
43	128	64	-0.0639484542837
43	130	65	0.041048134905555
43	132	66	0.67983046476438
43	134	67	-1.0553859177375
43	136	68	-0.050351148601884
43	138	69	0.23295923337012
43	140	70	0.36399920065513
43	142	71	-1.0457813345386
43	144	72	-0.42017768887814
43	146	73	1.7242835058147
43	148	74	-1.1521539445181
43	150	75	-0.11680579021145
43	152	76	1.3394919853981
43	154	77	-0.2696183614838
43	156	78	-0.81717690530142
43	158	79	-0.66901670455561
43	160	80	0.88528338729807
43	162	81	0.85980150610167
43	164	82	-0.029228688565667
43	166	83	-0.28527079580732
43	168	84	-0.10467473266124
43	170	85	-1.026319558499
43	172	86	1.3442231458614
43	174	87	-1.3007610839945
43	176	88	0.95047293779347
43	178	89	0.24472614013839
43	180	90	-0.10328951514936
42	84	42	28.798798441959
42	86	43	28.99579296699
42	88	44	28.845818241781
42	90	45	29.026609271487
42	92	46	28.726696606099
42	94	47	27.798983884814
42	96	48	28.44902149304
42	98	49	27.960011502568
42	100	50	25.526036060078
42	102	51	23.876930206248
42	104	52	22.628905975993
42	106	53	21.139621425096
42	108	54	20.908739260533
42	110	55	20.852094696966
42	112	56	21.041673340847
42	114	57	20.277075730507
42	116	58	19.698068703068
42	118	59	19.481588525007
42	120	60	20.443845501061
42	122	61	21.293606673724
42	124	62	19.121485666961
42	126	63	20.615287148012
42	128	64	20.551338693729
42	130	65	20.592386828634
42	132	66	21.272217293399
42	134	67	20.216831375661
42	136	68	20.166480227059
42	138	69	20.399439460429
42	140	70	20.763438661085
42	142	71	19.717657326546
42	144	72	19.297479637668
42	146	73	21.021763143482
42	148	74	19.869609198964
42	150	75	19.752803408753
42	152	76	21.092295394151
42	154	77	20.822677032667
42	156	78	20.005500127366
42	158	79	19.33648342281
42	160	80	20.221766810108
42	162	81	21.08156831621
42	164	82	21.052339627644
42	166	83	20.767068831837
42	168	84	20.662394099176
42	170	85	19.636074540677
42	172	86	20.980297686538
42	174	87	19.679536602544
42	176	88	20.630009540337
42	178	89	20.874735680476
42	180	90	20.771446165326
41	82	41	76.65
41	84	42	76.65
41	86	43	76.65
41	88	44	76.65
41	90	45	76.65
41	92	46	76.65
41	94	47	76.65
41	96	48	76.65
41	98	49	76.65
41	100	50	76.65
41	102	51	76.65
41	104	52	76.65
41	106	53	76.65
41	108	54	76.65
41	110	55	76.65
41	112	56	76.65
41	114	57	76.65
41	116	58	76.65
41	118	59	76.65
41	120	60	76.65
41	122	61	76.65
41	124	62	76.65
41	126	63	76.65
41	128	64	76.65
41	130	65	76.65
41	132	66	76.65
41	134	67	76.65
41	136	68	76.65
41	138	69	76.65
41	140	70	76.65
41	142	71	76.65
41	144	72	76.65
41	146	73	76.65
41	148	74	76.65
41	150	75	76.65
41	152	76	76.65
41	154	77	76.65
41	156	78	76.65
41	158	79	76.65
41	160	80	76.65
41	162	81	76.65
41	164	82	76.65
41	166	83	76.65
41	168	84	76.65
41	170	85	76.65
41	172	86	76.65
41	174	87	76.65
41	176	88	76.65
41	178	89	76.65
41	180	90	76.65
40	82	41	27.6
40	84	42	27.6
40	86	43	56.398798441959
40	88	44	85.394591408949
40	90	45	114.24040965073
40	92	46	143.26701892222
40	94	47	171.99371552832
40	96	48	199.79269941313
40	98	49	228.24172090617
40	100	50	256.20173240874
40	102	51	281.72776846882
40	104	52	305.60469867506
40	106	53	328.23360465106
40	108	54	349.37322607615
40	110	55	370.28196533669
40	112	56	391.13406003365
40	114	57	412.1757333745
40	116	58	432.45280910501
40	118	59	452.15087780807
40	120	60	471.63246633308
40	122	61	492.07631183414
40	124	62	513.36991850787
40	126	63	532.49140417483
40	128	64	553.10669132284
40	130	65	573.65803001657
40	132	66	594.2504168452
40	134	67	615.5226341386
40	136	68	635.73946551426
40	138	69	655.90594574132
40	140	70	676.30538520175
40	142	71	697.06882386284
40	144	72	716.78648118938
40	146	73	736.08396082705
40	148	74	757.10572397053
40	150	75	776.9753331695
40	152	76	796.72813657825
40	154	77	817.8204319724
40	156	78	838.64310900507
40	158	79	858.64860913243
40	160	80	877.98509255524
40	162	81	898.20685936535
40	164	82	919.28842768156
40	166	83	940.34076730921
40	168	84	961.10783614104
40	170	85	981.77023024022
40	172	86	1001.4063047809
40	174	87	1022.3866024674
40	176	88	1042.06613907
40	178	89	1062.6961486103
40	180	90	1083.5708842908
49	96	48	2.9030584082569
49	98	49	15.328823635641
49	100	50	6.7314192349311
49	102	51	0.973
49	104	52	5.2882217432122
49	106	53	15.849265677401
49	108	54	3.8939495910171
49	110	55	0.973
49	112	56	0.973
49	114	57	0.973
49	116	58	0.973
49	118	59	0.973
49	120	60	0.973
49	122	61	9.7404512954073
49	124	62	0.973
49	126	63	0.973
49	128	64	9.0191811058945
49	130	65	0.973
49	132	66	4.884630586808
49	134	67	4.9156481888692
49	136	68	3.6606903383755
49	138	69	0.973
49	140	70	2.287495460887
49	142	71	2.2629275320761
49	144	72	0.973
49	146	73	3.9949731723906
49	148	74	12.934608444049
49	150	75	0.973
49	152	76	0.973
49	154	77	13.998822656241
49	156	78	0.80882084424202
49	158	79	4.469091946246
49	160	80	0.973
49	162	81	0.973
49	164	82	10.452770162694
49	166	83	2.6115804859535
49	168	84	5.2616180818386
49	170	85	0.973
49	172	86	0.973
49	174	87	12.725779773343
49	176	88	0.973
49	178	89	6.5960685088912
49	180	90	4.199800911865
49	182	91	0.973
49	184	92	18.325867279152
48	96	48	-0.42849456577096
48	98	49	1.0061981094768
48	100	50	-0.0088635730789974
48	102	51	-1.2469660477946
48	104	52	-0.12315748434048
48	106	53	1.0898699221434
48	108	54	-0.32226631301455
48	110	55	-2.5229824098106
48	112	56	-1.8406601592638
48	114	57	-2.3564902397534
48	116	58	-3.7055411465451
48	118	59	-1.59507218801
48	120	60	-1.4608531976149
48	122	61	1.2189739388029
48	124	62	-0.77498115431097
48	126	63	-1.8821942829973
48	128	64	1.210861515148
48	130	65	-0.67454067597619
48	132	66	0.40083436646351
48	134	67	0.38674249031639
48	136	68	0.13254868307189
48	138	69	-0.64143383639994
48	140	70	-0.11735916194127
48	142	71	-0.11914154726914
48	144	72	-0.59502228432736
48	146	73	0.25253409472112
48	148	74	1.8786917150628
48	150	75	-1.3185702709068
48	152	76	-1.5142836925065
48	154	77	2.1704164696857
48	156	78	-0.42385139465537
48	158	79	0.29805987871915
48	160	80	-1.0998442075525
48	162	81	-0.51131427893988
48	164	82	1.4965955983191
48	166	83	-0.064826374893972
48	168	84	0.44083141774749
48	170	85	-0.76156217790756
48	172	86	-0.5988893664494
48	174	87	1.8439410785101
48	176	88	-1.7203816943877
48	178	89	0.73621495610845
48	180	90	0.24442683867519
48	182	91	-0.62720993135985
48	184	92	2.7020484628156
47	94	47	34.552777803829
47	96	48	34.124283238058
47	98	49	35.130481347535
47	100	50	35.121617774456
47	102	51	33.874651726661
47	104	52	33.751494242321
47	106	53	34.841364164464
47	108	54	34.51909785145
47	110	55	31.996115441639
47	112	56	30.155455282375
47	114	57	27.798965042622
47	116	58	24.093423896077
47	118	59	22.498351708067
47	120	60	21.037498510452
47	122	61	22.256472449255
47	124	62	21.481491294944
47	126	63	19.599297011946
47	128	64	20.810158527095
47	130	65	20.135617851118
47	132	66	20.536452217582
47	134	67	20.923194707898
47	136	68	21.05574339097
47	138	69	20.41430955457
47	140	70	20.296950392629
47	142	71	20.17780884536
47	144	72	19.582786561032
47	146	73	19.835320655754
47	148	74	21.714012370816
47	150	75	20.39544209991
47	152	76	18.881158407403
47	154	77	21.051574877089
47	156	78	20.627723482433
47	158	79	20.925783361153
47	160	80	19.8259391536
47	162	81	19.31462487466
47	164	82	20.811220472979
47	166	83	20.746394098085
47	168	84	21.187225515833
47	170	85	20.425663337925
47	172	86	19.826773971476
47	174	87	21.670715049986
47	176	88	19.950333355598
47	178	89	20.686548311707
47	180	90	20.930975150382
47	182	91	20.303765219022
47	184	92	23.005813681838
46	92	46	76.65
46	94	47	76.65
46	96	48	76.65
46	98	49	76.65
46	100	50	76.65
46	102	51	76.65
46	104	52	76.65
46	106	53	76.65
46	108	54	76.65
46	110	55	76.65
46	112	56	76.65
46	114	57	76.65
46	116	58	76.65
46	118	59	76.65
46	120	60	76.65
46	122	61	76.65
46	124	62	76.65
46	126	63	76.65
46	128	64	76.65
46	130	65	76.65
46	132	66	76.65
46	134	67	76.65
46	136	68	76.65
46	138	69	76.65
46	140	70	76.65
46	142	71	76.65
46	144	72	76.65
46	146	73	76.65
46	148	74	76.65
46	150	75	76.65
46	152	76	76.65
46	154	77	76.65
46	156	78	76.65
46	158	79	76.65
46	160	80	76.65
46	162	81	76.65
46	164	82	76.65
46	166	83	76.65
46	168	84	76.65
46	170	85	76.65
46	172	86	76.65
46	174	87	76.65
46	176	88	76.65
46	178	89	76.65
46	180	90	76.65
46	182	91	76.65
46	184	92	76.65
45	92	46	27.6
45	94	47	27.6
45	96	48	62.152777803829
45	98	49	96.277061041887
45	100	50	131.40754238942
45	102	51	166.52916016388
45	104	52	200.40381189054
45	106	53	234.15530613286
45	108	54	268.99667029732
45	110	55	303.51576814877
45	112	56	335.51188359041
45	114	57	365.66733887279
45	116	58	393.46630391541
45	118	59	417.55972781149
45	120	60	440.05807951955
45	122	61	461.09557803
45	124	62	483.35205047926
45	126	63	504.8335417742
45	128	64	524.43283878615
45	130	65	545.24299731324
45	132	66	565.37861516436
45	134	67	585.91506738194
45	136	68	606.83826208984
45	138	69	627.89400548081
45	140	70	648.30831503538
45	142	71	668.60526542801
45	144	72	688.78307427337
45	146	73	708.3658608344
45	148	74	728.20118149016
45	150	75	749.91519386097
45	152	76	770.31063596088
45	154	77	789.19179436829
45	156	78	810.24336924538
45	158	79	830.87109272781
45	160	80	851.79687608896
45	162	81	871.62281524256
45	164	82	890.93744011722
45	166	83	911.7486605902
45	168	84	932.49505468829
45	170	85	953.68228020412
45	172	86	974.10794354204
45	174	87	993.93471751352
45	176	88	1015.6054325635
45	178	89	1035.5557659191
45	180	90	1056.2423142308
45	182	91	1077.1732893812
45	184	92	1097.4770546002

