version 2
run General-44-20200211-12:44:57-39082
attr configname General
attr datetime 20200211-12:44:57
attr experiment General
attr inifile omnetpp.ini
attr iterationvars $0=44
attr iterationvarsf 44-
attr measurement $0=44
attr network scenario
attr processid 39082
attr repetition 0
attr replication #0
attr resultdir veins-runall-output
attr runnumber 44
attr seedset 44
param *.playgroundSizeX 10672m
param *.playgroundSizeY 7105m
param *.playgroundSizeZ 10000m
param *.annotations.draw false
param *.world.useTorus false
param *.world.use2D false
param *.manager.updateInterval 1s
param *.manager.host "\"localhost\""
param *.manager.port 9999
param *.manager.moduleType "\"org.car2x.veins.nodes.Car\""
param *.manager.moduleName "\"node\""
param *.manager.moduleDisplayString "\"\""
param *.manager.autoShutdown true
param *.manager.margin 25
param *.manager.launchConfig "xmldoc(\"sumo-launchd.launch.xml\")"
param *.manager.trafficLightModuleType "\"org.car2x.veins.nodes.TrafficLight\""
param *.manager.trafficLightModuleName "\"trafficLight\""
param *.manager.trafficLightModuleDisplayString default
param *.manager.trafficLightFilter "\"10\""
param *.manager.ignoreGuiCommands true
param *.trafficLight[*].mobility.x 0
param *.trafficLight[*].mobility.y 0
param *.trafficLight[*].mobility.z 3
param *.trafficLight[*].applType "\"org.car2x.veins.subprojects.veins_testsims.traci.TraCITrafficLightApp\""
param *.trafficLight[*].logicType "\"org.car2x.veins.subprojects.veins_testsims.traci.TraCITrafficLightTestLogic\""
param *.trafficLight[*].appl.headerLength "80 bit"
param *.trafficLight[*].appl.sendBeacons false
param *.trafficLight[*].appl.dataOnSch true
param *.connectionManager.sendDirect true
param *.connectionManager.maxInterfDist 2600m
param *.connectionManager.drawMaxIntfDist false
param *.**.nic.mac1609_4.useServiceChannel false
param *.**.nic.mac1609_4.txPower 20mW
param *.**.nic.mac1609_4.bitrate 18Mbps
param *.**.nic.phy80211p.minPowerLevel -110dBm
param *.**.nic.phy80211p.useNoiseFloor true
param *.**.nic.phy80211p.noiseFloor -98dBm
param *.**.nic.phy80211p.decider "xmldoc(\"config.xml\")"
param *.**.nic.phy80211p.analogueModels "xmldoc(\"config.xml\")"
param *.**.nic.phy80211p.usePropagationDelay true
param *.node[*].applType "\"org.car2x.veins.subprojects.veins_testsims.traci.TraCITestApp\""
param *.node[0].appl.testNumber 44
param *.node[*].appl.testNumber -1
param *.node[*].veinsmobilityType "\"org.car2x.veins.modules.mobility.traci.TraCIMobility\""
param *.node[*].veinsmobility.x 0
param *.node[*].veinsmobility.y 0
param *.node[*].veinsmobility.z 1.895
param *.node[*].veinsmobility.accidentCount 0
param *.node[*].veinsmobility.setHostSpeed true

vector 0 scenario.node[0].veinsmobility posx ETV
vector 1 scenario.node[0].veinsmobility posy ETV
vector 2 scenario.node[0].veinsmobility speed ETV
vector 3 scenario.node[0].veinsmobility acceleration ETV
vector 4 scenario.node[0].veinsmobility co2emission ETV
vector 5 scenario.node[1].veinsmobility posx ETV
vector 6 scenario.node[1].veinsmobility posy ETV
vector 7 scenario.node[1].veinsmobility speed ETV
vector 8 scenario.node[1].veinsmobility acceleration ETV
vector 9 scenario.node[1].veinsmobility co2emission ETV
vector 10 scenario.node[2].veinsmobility posx ETV
vector 11 scenario.node[2].veinsmobility posy ETV
vector 12 scenario.node[2].veinsmobility speed ETV
vector 13 scenario.node[2].veinsmobility acceleration ETV
vector 14 scenario.node[2].veinsmobility co2emission ETV
vector 15 scenario.node[3].veinsmobility posx ETV
vector 16 scenario.node[3].veinsmobility posy ETV
vector 17 scenario.node[3].veinsmobility speed ETV
vector 18 scenario.node[3].veinsmobility acceleration ETV
vector 19 scenario.node[3].veinsmobility co2emission ETV
vector 20 scenario.node[4].veinsmobility posx ETV
vector 21 scenario.node[4].veinsmobility posy ETV
vector 22 scenario.node[4].veinsmobility speed ETV
vector 23 scenario.node[4].veinsmobility acceleration ETV
vector 24 scenario.node[4].veinsmobility co2emission ETV
vector 25 scenario.node[5].veinsmobility posx ETV
vector 26 scenario.node[5].veinsmobility posy ETV
vector 27 scenario.node[5].veinsmobility speed ETV
vector 28 scenario.node[5].veinsmobility acceleration ETV
vector 29 scenario.node[5].veinsmobility co2emission ETV
vector 30 scenario.node[6].veinsmobility posx ETV
vector 31 scenario.node[6].veinsmobility posy ETV
vector 32 scenario.node[6].veinsmobility speed ETV
vector 33 scenario.node[6].veinsmobility acceleration ETV
vector 34 scenario.node[6].veinsmobility co2emission ETV
vector 35 scenario.node[7].veinsmobility posx ETV
vector 36 scenario.node[7].veinsmobility posy ETV
vector 37 scenario.node[7].veinsmobility speed ETV
4	6	3	9.0549579066719
4	8	4	8.4988778463559
4	10	5	0.046631045706452
4	12	6	1.346729538445
4	14	7	6.8698411864162
4	16	8	6.3845112230278
4	18	9	10.609141425341
4	20	10	-0.62763525208726
4	22	11	9.4819023524904
4	24	12	4.4429678264677
4	26	13	-0.10558168561576
4	28	14	11.802268687823
4	30	15	5.4601311759271
4	32	16	0.92545498520847
4	34	17	5.8794977887355
4	36	18	6.1640655057657
4	38	19	3.4203111609862
4	40	20	10.69111669374
4	42	21	0.973
4	44	22	2.9733256023771
4	46	23	4.3465146531251
4	48	24	11.995564277744
4	50	25	-0.5821653511519
4	52	26	14.75071866116
4	54	27	1.291939627666
4	56	28	3.6257707714849
4	58	29	9.1575941603104
4	60	30	1.9506600438733
4	62	31	1.8459858356143
4	64	32	10.98705410864
4	66	33	4.0683323653584
4	68	34	2.9720182905125
4	70	35	6.1153635486069
4	72	36	2.7343054276622
4	74	37	11.740415573078
3	6	3	0.52293095912319
3	8	4	0.42359790159389
3	10	5	-0.69673392002005
3	12	6	-0.50619142258074
3	14	7	0.25186112383381
3	16	8	0.1763841798529
3	18	9	0.71072384552099
3	20	10	-0.7868874395499
3	22	11	0.57219625858124
3	24	12	-0.10559434723109
3	26	13	-0.71066696522757
3	28	14	0.88155823771376
3	30	15	0.024184075067751
3	32	16	-0.57467688911129
3	34	17	0.10187313426286
3	36	18	0.13466655404773
3	38	19	-0.23182501236442
3	40	20	0.72010953607969
3	42	21	-0.95613441278692
3	44	22	-0.27706848678645
3	46	23	-0.081923894234933
3	48	24	0.92324440763332
3	50	25	-0.77525683294516
3	52	26	1.2576653023716
3	54	27	-0.53113030199893
3	56	28	-0.20612035389058
3	58	29	0.52156763069797
3	60	30	-0.43808835558593
3	62	31	-0.44074191909749
3	64	32	0.77513791888487
3	66	33	-0.15504761959892
3	68	34	-0.29476078238804
3	70	35	0.13075266627129
3	72	36	-0.32156901131384
3	74	37	0.86154521314893
2	4	2	29.997433819196
2	6	3	30.520364778319
2	8	4	30.943962679913
2	10	5	30.247228759893
2	12	6	29.741037337312
2	14	7	29.992898461146
2	16	8	30.169282640999
2	18	9	30.88000648652
2	20	10	30.09311904697
2	22	11	30.665315305551
2	24	12	30.55972095832
2	26	13	29.849053993093
2	28	14	30.730612230806
2	30	15	30.754796305874
2	32	16	30.180119416763
2	34	17	30.281992551026
2	36	18	30.416659105073
2	38	19	30.184834092709
2	40	20	30.904943628789
2	42	21	29.948809216002
2	44	22	29.671740729215
2	46	23	29.58981683498
2	48	24	30.513061242614
2	50	25	29.737804409669
2	52	26	30.99546971204
2	54	27	30.464339410041
2	56	28	30.258219056151
2	58	29	30.779786686849
2	60	30	30.341698331263
2	62	31	29.900956412165
2	64	32	30.67609433105
2	66	33	30.521046711451
2	68	34	30.226285929063
2	70	35	30.357038595334
2	72	36	30.035469584021
2	74	37	30.89701479717
1	2	1	76.65
1	4	2	76.65
1	6	3	76.65
1	8	4	76.65
1	10	5	76.65
1	12	6	76.65
1	14	7	76.65
1	16	8	76.65
1	18	9	76.65
1	20	10	76.65
1	22	11	76.65
1	24	12	76.65
1	26	13	76.65
1	28	14	76.65
1	30	15	76.65
1	32	16	76.65
1	34	17	76.65
1	36	18	76.65
1	38	19	76.65
1	40	20	76.65
1	42	21	76.65
1	44	22	76.65
1	46	23	76.65
1	48	24	76.65
1	50	25	76.65
1	52	26	76.65
1	54	27	76.65
1	56	28	76.65
1	58	29	76.65
1	60	30	76.65
1	62	31	76.65
1	64	32	76.65
1	66	33	76.65
1	68	34	76.65
1	70	35	76.65
1	72	36	76.65
1	74	37	76.65
0	2	1	27.6
0	4	2	27.6
0	6	3	57.597433819196
0	8	4	88.117798597515
0	10	5	119.06176127743
0	12	6	149.30899003732
0	14	7	179.05002737463
0	16	8	209.04292583578
0	18	9	239.21220847678
0	20	10	270.0922149633
0	22	11	300.18533401027
0	24	12	330.85064931582
0	26	13	361.41037027414
0	28	14	391.25942426723
0	30	15	421.99003649804
0	32	16	452.74483280391
0	34	17	482.92495222068
0	36	18	513.2069447717
0	38	19	543.62360387678
0	40	20	573.80843796948
0	42	21	604.71338159827
0	44	22	634.66219081428
0	46	23	664.33393154349
0	48	24	693.92374837847
0	50	25	724.43680962108
0	52	26	754.17461403075
0	54	27	785.17008374279
0	56	28	815.63442315284
0	58	29	845.89264220899
0	60	30	876.67242889583
0	62	31	907.0141272271
0	64	32	936.91508363926
0	66	33	967.59117797031
0	68	34	998.11222468176
0	70	35	1028.3385106108
0	72	36	1058.6955492062
0	74	37	1088.7310187902
vector 38 scenario.node[7].veinsmobility acceleration ETV
vector 39 scenario.node[7].veinsmobility co2emission ETV
vector 40 scenario.node[8].veinsmobility posx ETV
vector 41 scenario.node[8].veinsmobility posy ETV
vector 42 scenario.node[8].veinsmobility speed ETV
vector 43 scenario.node[8].veinsmobility acceleration ETV
vector 44 scenario.node[8].veinsmobility co2emission ETV
9	16	8	0.973
9	18	9	7.571291812718
9	20	10	5.5542453148332
9	22	11	1.4446197809318
9	24	12	8.6315642222256
9	26	13	9.2060826741665
9	28	14	0.973
9	30	15	5.2489198220867
9	32	16	7.1687562163273
9	34	17	0.973
9	36	18	6.9480686769379
9	38	19	8.8579526330423
9	40	20	1.393928211888
9	42	21	8.2398834073704
9	44	22	7.6306723667609
9	46	23	4.4593470779989
9	48	24	4.5196711937101
9	50	25	0.973
9	52	26	10.368813933513
9	54	27	6.5199012956322
9	56	28	5.7030773608943
9	58	29	2.879427740752
9	60	30	0.973
9	62	31	12.713069098051
9	64	32	0.12855600397197
9	66	33	4.6251791918359
9	68	34	9.9320444496715
9	70	35	0.973
9	72	36	4.293712094635
9	74	37	11.022284358618
9	76	38	6.614370101632
9	78	39	5.0961769262865
9	80	40	-0.49542952425149
9	82	41	7.175801898232
9	84	42	6.0071804740946
9	86	43	2.0683739619587
9	88	44	-0.045478732054493
8	16	8	-0.89912858465686
8	18	9	0.44805449608248
8	20	10	0.14435671095271
8	22	11	-0.4477252420038
8	24	12	0.58708500838839
8	26	13	0.63133426685818
8	28	14	-1.0425417660736
8	30	15	0.1067264751764
8	32	16	0.37020253634546
8	34	17	-0.83901198150124
8	36	18	0.36283537116833
8	38	19	0.6079941970529
8	40	20	-0.46267451299354
8	42	21	0.51538926071953
8	44	22	0.40517952258233
8	46	23	-0.0453104210319
8	48	24	-0.035315734567121
8	50	25	-1.1524176645325
8	52	26	0.82356644805986
8	54	27	0.25436424650252
8	56	28	0.13136080303229
8	58	29	-0.26347748260014
8	60	30	-0.91773413890041
8	62	31	1.1354617764009
8	64	32	-0.65231363754719
8	66	33	0.0050356012070552
8	68	34	0.73234529723413
8	70	35	-1.2770192582393
8	72	36	-0.021746827522293
8	74	37	0.91510820807889
8	76	38	0.26532111468259
8	78	39	0.046120784129016
8	80	40	-0.74252155283466
8	82	41	0.36312700272538
8	84	42	0.18530205683783
8	86	43	-0.37131511070766
8	88	44	-0.66896398121025
7	14	7	28.609053899346
7	16	8	27.709925314689
7	18	9	28.157979810772
7	20	10	28.302336521724
7	22	11	27.854611279721
7	24	12	28.441696288109
7	26	13	29.073030554967
7	28	14	28.030488788894
7	30	15	28.13721526407
7	32	16	28.507417800415
7	34	17	27.668405818914
7	36	18	28.031241190083
7	38	19	28.639235387135
7	40	20	28.176560874142
7	42	21	28.691950134861
7	44	22	29.097129657444
7	46	23	29.051819236412
7	48	24	29.016503501845
7	50	25	27.864085837312
7	52	26	28.687652285372
7	54	27	28.942016531875
7	56	28	29.073377334907
7	58	29	28.809899852307
7	60	30	27.892165713406
7	62	31	29.027627489807
7	64	32	28.37531385226
7	66	33	28.380349453467
7	68	34	29.112694750701
7	70	35	27.835675492462
7	72	36	27.81392866494
7	74	37	28.729036873019
7	76	38	28.994357987701
7	78	39	29.04047877183
7	80	40	28.297957218995
7	82	41	28.661084221721
7	84	42	28.846386278559
7	86	43	28.475071167851
7	88	44	27.806107186641
6	12	6	76.65
6	14	7	76.65
6	16	8	76.65
6	18	9	76.65
6	20	10	76.65
6	22	11	76.65
6	24	12	76.65
6	26	13	76.65
6	28	14	76.65
6	30	15	76.65
6	32	16	76.65
6	34	17	76.65
6	36	18	76.65
6	38	19	76.65
6	40	20	76.65
6	42	21	76.65
6	44	22	76.65
6	46	23	76.65
6	48	24	76.65
6	50	25	76.65
6	52	26	76.65
6	54	27	76.65
6	56	28	76.65
6	58	29	76.65
6	60	30	76.65
6	62	31	76.65
6	64	32	76.65
6	66	33	76.65
6	68	34	76.65
6	70	35	76.65
6	72	36	76.65
6	74	37	76.65
6	76	38	76.65
6	78	39	76.65
6	80	40	76.65
6	82	41	76.65
6	84	42	76.65
6	86	43	76.65
6	88	44	76.65
5	12	6	27.6
5	14	7	27.6
5	16	8	56.209053899346
5	18	9	83.918979214035
5	20	10	112.07695902481
5	22	11	140.37929554653
5	24	12	168.23390682625
5	26	13	196.67560311436
5	28	14	225.74863366933
5	30	15	253.77912245822
5	32	16	281.91633772229
5	34	17	310.42375552271
5	36	18	338.09216134162
5	38	19	366.1234025317
5	40	20	394.76263791884
5	42	21	422.93919879298
5	44	22	451.63114892784
5	46	23	480.72827858529
5	48	24	509.7800978217
5	50	25	538.79660132354
5	52	26	566.66068716086
5	54	27	595.34833944623
5	56	28	624.2903559781
5	58	29	653.36373331301
5	60	30	682.17363316532
5	62	31	710.06579887872
5	64	32	739.09342636853
5	66	33	767.46874022079
5	68	34	795.84908967426
5	70	35	824.96178442496
5	72	36	852.79745991742
5	74	37	880.61138858236
5	76	38	909.34042545538
5	78	39	938.33478344308
5	80	40	967.37526221491
5	82	41	995.6732194339
5	84	42	1024.3343036556
5	86	43	1053.1806899342
5	88	44	1081.655761102
vector 45 scenario.node[9].veinsmobility posx ETV
vector 46 scenario.node[9].veinsmobility posy ETV
vector 47 scenario.node[9].veinsmobility speed ETV
vector 48 scenario.node[9].veinsmobility acceleration ETV
vector 49 scenario.node[9].veinsmobility co2emission ETV
14	26	13	0.973
14	28	14	4.3729879805779
14	30	15	8.8381248682011
14	32	16	6.1443901092633
14	34	17	0.15586116913647
14	36	18	6.3080158955641
14	38	19	4.6751250531466
14	40	20	7.0759005603274
14	42	21	0.47102006867537
14	44	22	5.7960442460378
14	46	23	3.3909990412772
14	48	24	3.6091145658986
14	50	25	6.1730644351122
14	52	26	2.5518715447115
14	54	27	6.6825782648109
14	56	28	1.3956135536307
14	58	29	11.453308106654
14	60	30	0.973
14	62	31	9.2614485980119
14	64	32	3.8380167674443
14	66	33	1.1088404374297
14	68	34	13.422414892824
14	70	35	1.1728229662027
14	72	36	7.3091818646709
14	74	37	0.973
14	76	38	11.580728304081
14	78	39	2.6700811360106
14	80	40	6.3832977497972
14	82	41	0.50148117145234
14	84	42	2.4753951387498
14	86	43	11.976162339161
14	88	44	1.1011250748862
14	90	45	7.7812037811748
14	92	46	3.6360046522576
14	94	47	2.2594736756806
14	96	48	6.4123025478834
14	98	49	0.973
14	100	50	4.8699131565925
13	26	13	-1.0121632965747
13	28	14	0.014476087060757
13	30	15	0.6544062285684
13	32	16	0.24133810924832
13	34	17	-0.63323444430716
13	36	18	0.28271973493975
13	38	19	0.036917676916346
13	40	20	0.3756853613304
13	42	21	-0.58749160193838
13	44	22	0.20473181270063
13	46	23	-0.14969052001834
13	48	24	-0.11298538965639
13	50	25	0.26115354057401
13	52	26	-0.27218583819922
13	54	27	0.33413319883402
13	56	28	-0.44422700407449
13	58	29	1.0031779732089
13	60	30	-1.2539594013942
13	62	31	0.7172758692177
13	64	32	-0.087725587072782
13	66	33	-0.48545344825834
13	68	34	1.2768754970748
13	70	35	-0.4926191662671
13	72	36	0.39367909147404
13	74	37	-1.0588856617687
13	76	38	1.0196263769176
13	78	39	-0.27359216858167
13	80	40	0.26116982975509
13	82	41	-0.58744244487025
13	84	42	-0.28479362279177
13	86	43	1.0635402618209
13	88	44	-0.50385496532544
13	90	45	0.45731448428705
13	92	46	-0.14038894081023
13	94	47	-0.33230139012448
13	96	48	0.26833292318042
13	98	49	-1.0898026465438
13	100	50	0.084213377907872
12	24	12	28.185867935272
12	26	13	27.173704638697
12	28	14	27.188180725758
12	30	15	27.842586954326
12	32	16	28.083925063575
12	34	17	27.450690619267
12	36	18	27.733410354207
12	38	19	27.770328031123
12	40	20	28.146013392454
12	42	21	27.558521790515
12	44	22	27.763253603216
12	46	23	27.613563083198
12	48	24	27.500577693541
12	50	25	27.761731234115
12	52	26	27.489545395916
12	54	27	27.82367859475
12	56	28	27.379451590676
12	58	29	28.382629563885
12	60	30	27.12867016249
12	62	31	27.845946031708
12	64	32	27.758220444635
12	66	33	27.272766996377
12	68	34	28.549642493452
12	70	35	28.057023327185
12	72	36	28.450702418659
12	74	37	27.39181675689
12	76	38	28.411443133808
12	78	39	28.137850965226
12	80	40	28.399020794981
12	82	41	27.811578350111
12	84	42	27.526784727319
12	86	43	28.59032498914
12	88	44	28.086470023814
12	90	45	28.543784508101
12	92	46	28.403395567291
12	94	47	28.071094177167
12	96	48	28.339427100347
12	98	49	27.249624453803
12	100	50	27.333837831711
11	22	11	76.65
11	24	12	76.65
11	26	13	76.65
11	28	14	76.65
11	30	15	76.65
11	32	16	76.65
11	34	17	76.65
11	36	18	76.65
11	38	19	76.65
11	40	20	76.65
11	42	21	76.65
11	44	22	76.65
11	46	23	76.65
11	48	24	76.65
11	50	25	76.65
11	52	26	76.65
11	54	27	76.65
11	56	28	76.65
11	58	29	76.65
11	60	30	76.65
11	62	31	76.65
11	64	32	76.65
11	66	33	76.65
11	68	34	76.65
11	70	35	76.65
11	72	36	76.65
11	74	37	76.65
11	76	38	76.65
11	78	39	76.65
11	80	40	76.65
11	82	41	76.65
11	84	42	76.65
11	86	43	76.65
11	88	44	76.65
11	90	45	76.65
11	92	46	76.65
11	94	47	76.65
11	96	48	76.65
11	98	49	76.65
11	100	50	76.65
10	22	11	27.6
10	24	12	27.6
10	26	13	55.785867935272
10	28	14	82.959572573969
10	30	15	110.14775329973
10	32	16	137.99034025405
10	34	17	166.07426531763
10	36	18	193.52495593689
10	38	19	221.2583662911
10	40	20	249.02869432223
10	42	21	277.17470771468
10	44	22	304.73322950519
10	46	23	332.49648310841
10	48	24	360.11004619161
10	50	25	387.61062388515
10	52	26	415.37235511927
10	54	27	442.86190051518
10	56	28	470.68557910993
10	58	29	498.06503070061
10	60	30	526.44766026449
10	62	31	553.57633042698
10	64	32	581.42227645869
10	66	33	609.18049690333
10	68	34	636.4532638997
10	70	35	665.00290639315
10	72	36	693.05992972034
10	74	37	721.510632139
10	76	38	748.90244889589
10	78	39	777.3138920297
10	80	40	805.45174299492
10	82	41	833.8507637899
10	84	42	861.66234214001
10	86	43	889.18912686733
10	88	44	917.77945185647
10	90	45	945.86592188029
10	92	46	974.40970638839
10	94	47	1002.8131019557
10	96	48	1030.8841961328
10	98	49	1059.2236232332
10	100	50	1086.473247687
19	36	18	0.973
19	38	19	8.7656023505817
19	40	20	2.8067614496698
19	42	21	2.4722530214755
19	44	22	6.1995125269225
19	46	23	5.1887010820362
19	48	24	0.57091125970782
19	50	25	4.4369048993526
19	52	26	6.9145395049439
19	54	27	0.38250473711102
19	56	28	5.8641351389334
19	58	29	8.1089315714804
19	60	30	3.0251732716807
19	62	31	5.9013711644349
19	64	32	0.65160827145067
19	66	33	6.7989365759798
19	68	34	1.447709497637
19	70	35	9.7662920073525
19	72	36	2.5682175506951
19	74	37	-0.26314758624878
19	76	38	13.474512201954
19	78	39	0.973
19	80	40	-0.11449957326642
19	82	41	8.1601509392387
19	84	42	9.5297656236652
19	86	43	5.4158125471196
19	88	44	2.3878507627799
19	90	45	0.973
19	92	46	12.828985099464
19	94	47	0.973
19	96	48	13.534816598956
19	98	49	0.973
19	100	50	6.1941150496454
19	102	51	9.3043846262227
19	104	52	5.1813406041148
19	106	53	0.973
19	108	54	3.6496507704585
19	110	55	12.065336768713
19	112	56	0.973
18	36	18	-1.0027814763598
18	38	19	0.6573272900423
18	40	20	-0.23075939028058
18	42	21	-0.27363085106481
18	44	22	0.28272506373469
18	46	23	0.12425474915653
18	48	24	-0.56181455100887
18	50	25	0.031846217229031
18	52	26	0.391742648324
18	54	27	-0.58810459147207
18	56	28	0.24871918000281
18	58	29	0.55960003193468
18	60	30	-0.19821544387378
18	62	31	0.22647401026916
18	64	32	-0.55157871020492
18	66	33	0.37068583758082
18	68	34	-0.42830911232159
18	70	35	0.79419417993631
18	72	36	-0.27146273874678
18	74	37	-0.68884672655258
18	76	38	1.3163176212693
18	78	39	-0.78532940230798
18	80	40	-0.66409180895425
18	82	41	0.58496512274724
18	84	42	0.74337057117373
18	86	43	0.12922451645136
18	88	44	-0.30785499501508
18	90	45	-0.98799380217679
18	92	46	1.2263470472535
18	94	47	-1.2886357532116
18	96	48	1.3271742666839
18	98	49	-1.3001260320889
18	100	50	0.29437607713044
18	102	51	0.72207479376812
18	104	52	0.10376351641025
18	106	53	-0.80223134346306
18	108	54	-0.092115196399391
18	110	55	1.1079443434719
18	112	56	-0.98189240845386
17	34	17	27.968599276575
17	36	18	26.965817800215
17	38	19	27.623145090257
17	40	20	27.392385699977
17	42	21	27.118754848912
17	44	22	27.401479912647
17	46	23	27.525734661803
17	48	24	26.963920110794
17	50	25	26.995766328023
17	52	26	27.387508976347
17	54	27	26.799404384875
17	56	28	27.048123564878
17	58	29	27.607723596813
17	60	30	27.409508152939
17	62	31	27.635982163208
17	64	32	27.084403453003
17	66	33	27.455089290584
17	68	34	27.026780178263
17	70	35	27.820974358199
17	72	36	27.549511619452
17	74	37	26.860664892899
17	76	38	28.176982514169
17	78	39	27.391653111861
17	80	40	26.727561302907
17	82	41	27.312526425654
17	84	42	28.055896996827
17	86	43	28.185121513279
17	88	44	27.877266518264
17	90	45	26.889272716087
17	92	46	28.11561976334
17	94	47	26.826984010129
17	96	48	28.154158276813
17	98	49	26.854032244724
17	100	50	27.148408321854
17	102	51	27.870483115622
17	104	52	27.974246632033
17	106	53	27.17201528857
17	108	54	27.07990009217
17	110	55	28.187844435642
17	112	56	27.205952027188
16	32	16	76.65
16	34	17	76.65
16	36	18	76.65
16	38	19	76.65
16	40	20	76.65
16	42	21	76.65
16	44	22	76.65
16	46	23	76.65
16	48	24	76.65
16	50	25	76.65
16	52	26	76.65
16	54	27	76.65
16	56	28	76.65
16	58	29	76.65
16	60	30	76.65
16	62	31	76.65
16	64	32	76.65
16	66	33	76.65
16	68	34	76.65
16	70	35	76.65
16	72	36	76.65
16	74	37	76.65
16	76	38	76.65
16	78	39	76.65
16	80	40	76.65
16	82	41	76.65
16	84	42	76.65
16	86	43	76.65
16	88	44	76.65
16	90	45	76.65
16	92	46	76.65
16	94	47	76.65
16	96	48	76.65
16	98	49	76.65
16	100	50	76.65
16	102	51	76.65
16	104	52	76.65
16	106	53	76.65
16	108	54	76.65
16	110	55	76.65
16	112	56	76.65
15	32	16	27.6
15	34	17	27.6
15	36	18	55.568599276575
15	38	19	82.53441707679
15	40	20	110.15756216705
15	42	21	137.54994786702
15	44	22	164.66870271594
15	46	23	192.07018262858
15	48	24	219.59591729039
15	50	25	246.55983740118
15	52	26	273.5556037292
15	54	27	300.94311270555
15	56	28	327.74251709043
15	58	29	354.79064065531
15	60	30	382.39836425212
15	62	31	409.80787240506
15	64	32	437.44385456827
15	66	33	464.52825802127
15	68	34	491.98334731185
15	70	35	519.01012749012
15	72	36	546.83110184831
15	74	37	574.38061346777
15	76	38	601.24127836067
15	78	39	629.41826087483
15	80	40	656.80991398669
15	82	41	683.5374752896
15	84	42	710.85000171526
15	86	43	738.90589871208
15	88	44	767.09102022536
15	90	45	794.96828674363
15	92	46	821.85755945971
15	94	47	849.97317922305
15	96	48	876.80016323318
15	98	49	904.95432150999
15	100	50	931.80835375472
15	102	51	958.95676207657
15	104	52	986.8272451922
15	106	53	1014.8014918242
15	108	54	1041.9735071128
15	110	55	1069.053407205
15	112	56	1097.2412516406
24	46	23	1.7198140054505
24	48	24	6.1081315522163
24	50	25	0.45128873086585
24	52	26	3.9248539072026
24	54	27	5.9903169423355
24	56	28	5.5287536501706
24	58	29	0.973
24	60	30	6.9005996942308
24	62	31	0.63551902889744
24	64	32	6.2605383721301
24	66	33	0.973
24	68	34	7.5420850485266
24	70	35	0.973
24	72	36	11.811932117491
24	74	37	0.973
24	76	38	1.7851376226039
24	78	39	10.392072964978
24	80	40	0.973
24	82	41	5.2123049142352
24	84	42	3.4408699298883
24	86	43	5.6820047546245
24	88	44	5.1921189301963
24	90	45	4.3959947610159
24	92	46	1.768243271352
24	94	47	1.4280448798813
24	96	48	3.1415135751638
24	98	49	2.7952095974108
24	100	50	4.1606699960437
24	102	51	3.9146751446848
24	104	52	4.0810504015441
24	106	53	6.0844221085587
24	108	54	3.6035393349352
24	110	55	1.3057498636085
24	112	56	4.4383015731522
24	114	57	5.9657330584892
24	116	58	3.1977142476819
24	118	59	0.973
24	120	60	4.0672038891292
24	122	61	7.9080639078181
24	124	62	0.973
24	126	63	3.5748533645159
24	128	64	10.897655255216
24	130	65	0.973
24	132	66	7.0633944019931
24	134	67	1.0359624935136
23	46	23	-0.30073112924583
23	48	24	0.45402796100825
23	50	25	-0.52526372484863
23	52	26	0.090403794078156
23	54	27	0.43355912924744
23	56	28	0.3361811946379
23	58	29	-0.91208067757543
23	60	30	0.59132538351696
23	62	31	-0.49308057501912
23	64	32	0.48051058023702
23	66	33	-0.64709407940973
23	68	34	0.70043158822227
23	70	35	-0.71973387699109
23	72	36	1.3806626497535
23	74	37	-1.0407006307505
23	76	38	-0.28552295663394
23	78	39	1.1546452429611
23	80	40	-0.9290560958907
23	82	41	0.30186700634658
23	84	42	-0.0077594413887709
23	86	43	0.36559451557696
23	88	44	0.26842668454628
23	90	45	0.12743186764419
23	92	46	-0.3108863462694
23	94	47	-0.36182881006971
23	96	48	-0.061064777662978
23	98	49	-0.11798438499682
23	100	50	0.11711572401691
23	102	51	0.071345639764331
23	104	52	0.096486782887951
23	106	53	0.42147204943467
23	108	54	-0.0016296909889206
23	110	55	-0.38590885838494
23	112	56	0.15067353285849
23	114	57	0.3930231006816
23	116	58	-0.073654469568282
23	118	59	-0.96514462935738
23	120	60	0.10819701931905
23	122	61	0.73513708845712
23	124	62	-1.053137519164
23	126	63	0.031929343007505
23	128	64	1.2279159704922
23	130	65	-1.4429538315162
23	132	66	0.62813141033985
23	134	67	-0.42073313717265
22	44	22	23.648041684041
22	46	23	23.347310554796
22	48	24	23.801338515804
22	50	25	23.276074790955
22	52	26	23.366478585033
22	54	27	23.800037714281
22	56	28	24.136218908919
22	58	29	23.224138231343
22	60	30	23.81546361486
22	62	31	23.322383039841
22	64	32	23.802893620078
22	66	33	23.155799540668
22	68	34	23.856231128891
22	70	35	23.1364972519
22	72	36	24.517159901653
22	74	37	23.476459270903
22	76	38	23.190936314269
22	78	39	24.34558155723
22	80	40	23.416525461339
22	82	41	23.718392467686
22	84	42	23.710633026297
22	86	43	24.076227541874
22	88	44	24.34465422642
22	90	45	24.472086094064
22	92	46	24.161199747795
22	94	47	23.799370937725
22	96	48	23.738306160062
22	98	49	23.620321775065
22	100	50	23.737437499082
22	102	51	23.808783138847
22	104	52	23.905269921735
22	106	53	24.326741971169
22	108	54	24.32511228018
22	110	55	23.939203421795
22	112	56	24.089876954654
22	114	57	24.482900055336
22	116	58	24.409245585767
22	118	59	23.44410095641
22	120	60	23.552297975729
22	122	61	24.287435064186
22	124	62	23.234297545022
22	126	63	23.26622688803
22	128	64	24.494142858522
22	130	65	23.051189027006
22	132	66	23.679320437345
22	134	67	23.258587300173
21	42	21	76.65
21	44	22	76.65
21	46	23	76.65
21	48	24	76.65
21	50	25	76.65
21	52	26	76.65
21	54	27	76.65
21	56	28	76.65
21	58	29	76.65
21	60	30	76.65
21	62	31	76.65
21	64	32	76.65
21	66	33	76.65
21	68	34	76.65
21	70	35	76.65
21	72	36	76.65
21	74	37	76.65
21	76	38	76.65
21	78	39	76.65
21	80	40	76.65
21	82	41	76.65
21	84	42	76.65
21	86	43	76.65
21	88	44	76.65
21	90	45	76.65
21	92	46	76.65
21	94	47	76.65
21	96	48	76.65
21	98	49	76.65
21	100	50	76.65
21	102	51	76.65
21	104	52	76.65
21	106	53	76.65
21	108	54	76.65
21	110	55	76.65
21	112	56	76.65
21	114	57	76.65
21	116	58	76.65
21	118	59	76.65
21	120	60	76.65
21	122	61	76.65
21	124	62	76.65
21	126	63	76.65
21	128	64	76.65
21	130	65	76.65
21	132	66	76.65
21	134	67	76.65
20	42	21	27.6
20	44	22	27.6
20	46	23	51.248041684041
20	48	24	74.595352238837
20	50	25	98.396690754641
20	52	26	121.6727655456
20	54	27	145.03924413063
20	56	28	168.83928184491
20	58	29	192.97550075383
20	60	30	216.19963898517
20	62	31	240.01510260003
20	64	32	263.33748563987
20	66	33	287.14037925995
20	68	34	310.29617880062
20	70	35	334.15240992951
20	72	36	357.28890718141
20	74	37	381.80606708306
20	76	38	405.28252635397
20	78	39	428.47346266824
20	80	40	452.81904422547
20	82	41	476.2355696868
20	84	42	499.95396215449
20	86	43	523.66459518079
20	88	44	547.74082272266
20	90	45	572.08547694908
20	92	46	596.55756304315
20	94	47	620.71876279094
20	96	48	644.51813372867
20	98	49	668.25643988873
20	100	50	691.87676166379
20	102	51	715.61419916288
20	104	52	739.42298230172
20	106	53	763.32825222346
20	108	54	787.65499419463
20	110	55	811.98010647481
20	112	56	835.9193098966
20	114	57	860.00918685126
20	116	58	884.49208690659
20	118	59	908.90133249236
20	120	60	932.34543344877
20	122	61	955.8977314245
20	124	62	980.18516648869
20	126	63	1003.4194640337
20	128	64	1026.6856909217
20	130	65	1051.1798337803
20	132	66	1074.2310228073
20	134	67	1097.9103432446
29	56	28	5.754529403278
29	58	29	4.9858038120998
29	60	30	1.031036190352
29	62	31	3.9208490831598
29	64	32	9.9739360157494
29	66	33	2.5921328459627
29	68	34	6.3291471048379
29	70	35	0.90433458758265
29	72	36	0.973
29	74	37	3.8251670327525
29	76	38	0.973
29	78	39	0.973
29	80	40	10.723491919808
29	82	41	0.973
29	84	42	2.9964651443814
29	86	43	9.5855743886642
29	88	44	4.2052142828064
29	90	45	3.5654718380208
29	92	46	4.9885069787628
29	94	47	0.35707535518338
29	96	48	0.973
29	98	49	3.8980586042032
29	100	50	3.8489522690624
29	102	51	1.6328238943509
29	104	52	2.8810522252163
29	106	53	10.430177897787
29	108	54	6.7925980022942
29	110	55	0.20599854462044
29	112	56	0.035060254497597
29	114	57	5.9641684533759
29	116	58	0.66670827694887
29	118	59	12.487113808288
29	120	60	0.973
29	122	61	4.5600531273487
29	124	62	9.8233062421229
29	126	63	0.973
29	128	64	7.489863922988
29	130	65	12.533222961031
29	132	66	0.973
29	134	67	8.4169068663716
29	136	68	0.973
28	56	28	0.015538307838142
28	58	29	-0.081297066179104
28	60	30	-0.58373815915547
28	62	31	-0.19247061456554
28	64	32	0.58180507365614
28	66	33	-0.37649380008224
28	68	34	0.11503520887345
28	70	35	-0.59002997214281
28	72	36	-1.9118304577427
28	74	37	-0.12334546713602
28	76	38	-2.3645153751943
28	78	39	-2.3478525056812
28	80	40	1.1449030853525
28	82	41	-1.2651516871328
28	84	42	-0.087744115109007
28	86	43	0.98486737719742
28	88	44	0.080170896324987
28	90	45	-0.025758354605362
28	92	46	0.20301394740759
28	94	47	-0.55728823051361
28	96	48	-0.98385781581385
28	98	49	0.078140344923291
28	100	50	0.066914789874371
28	102	51	-0.31538490079823
28	104	52	-0.090355525737095
28	106	53	1.1583829592675
28	108	54	0.50980294488798
28	110	55	-0.58096319007092
28	112	56	-0.60370651505026
28	114	57	0.41212394398591
28	116	58	-0.49194893441659
28	118	59	1.4423314526411
28	120	60	-1.5375350656941
28	122	61	0.18784611138834
28	124	62	1.0263908595613
28	126	63	-2.5109567187837
28	128	64	0.74931270049462
28	130	65	1.5056981033183
28	132	66	-0.98045670009821
28	134	67	0.81938715181068
28	136	68	-1.5473428604054
27	54	27	31.846806130587
27	56	28	31.862344438425
27	58	29	31.781047372246
27	60	30	31.197309213091
27	62	31	31.004838598525
27	64	32	31.586643672181
27	66	33	31.210149872099
27	68	34	31.325185080972
27	70	35	30.73515510883
27	72	36	28.823324651087
27	74	37	28.699979183951
27	76	38	26.335463808756
27	78	39	23.987611303075
27	80	40	25.132514388428
27	82	41	23.867362701295
27	84	42	23.779618586186
27	86	43	24.764485963383
27	88	44	24.844656859708
27	90	45	24.818898505103
27	92	46	25.021912452511
27	94	47	24.464624221997
27	96	48	23.480766406183
27	98	49	23.558906751106
27	100	50	23.625821540981
27	102	51	23.310436640183
27	104	52	23.220081114445
27	106	53	24.378464073713
27	108	54	24.888267018601
27	110	55	24.30730382853
27	112	56	23.70359731348
27	114	57	24.115721257466
27	116	58	23.623772323049
27	118	59	25.06610377569
27	120	60	23.528568709996
27	122	61	23.716414821384
27	124	62	24.742805680946
27	126	63	22.231848962162
27	128	64	22.981161662657
27	130	65	24.486859765975
27	132	66	23.506403065877
27	134	67	24.325790217687
27	136	68	22.778447357282
26	52	26	76.65
26	54	27	76.65
26	56	28	76.65
26	58	29	76.65
26	60	30	76.65
26	62	31	76.65
26	64	32	76.65
26	66	33	76.65
26	68	34	76.65
26	70	35	76.65
26	72	36	76.65
26	74	37	76.65
26	76	38	76.65
26	78	39	76.65
26	80	40	76.65
26	82	41	76.65
26	84	42	76.65
26	86	43	76.65
26	88	44	76.65
26	90	45	76.65
26	92	46	76.65
26	94	47	76.65
26	96	48	76.65
26	98	49	76.65
26	100	50	76.65
26	102	51	76.65
26	104	52	76.65
26	106	53	76.65
26	108	54	76.65
26	110	55	76.65
26	112	56	76.65
26	114	57	76.65
26	116	58	76.65
26	118	59	76.65
26	120	60	76.65
26	122	61	76.65
26	124	62	76.65
26	126	63	76.65
26	128	64	76.65
26	130	65	76.65
26	132	66	76.65
26	134	67	76.65
26	136	68	76.65
25	52	26	27.6
25	54	27	27.6
25	56	28	59.446806130587
25	58	29	91.309150569012
25	60	30	123.09019794126
25	62	31	154.28750715435
25	64	32	185.29234575287
25	66	33	216.87898942505
25	68	34	248.08913929715
25	70	35	279.41432437813
25	72	36	310.14947948696
25	74	37	338.97280413804
25	76	38	367.67278332199
25	78	39	394.00824713075
25	80	40	417.99585843382
25	82	41	443.12837282225
25	84	42	466.99573552355
25	86	43	490.77535410973
25	88	44	515.53984007312
25	90	45	540.38449693283
25	92	46	565.20339543793
25	94	47	590.22530789044
25	96	48	614.68993211244
25	98	49	638.17069851862
25	100	50	661.72960526973
25	102	51	685.35542681071
25	104	52	708.66586345089
25	106	53	731.88594456533
25	108	54	756.26440863905
25	110	55	781.15267565765
25	112	56	805.45997948618
25	114	57	829.16357679966
25	116	58	853.27929805712
25	118	59	876.90307038017
25	120	60	901.96917415586
25	122	61	925.49774286586
25	124	62	949.21415768724
25	126	63	973.95696336819
25	128	64	996.18881233035
25	130	65	1019.169973993
25	132	66	1043.656833759
25	134	67	1067.1632368249
25	136	68	1091.4890270425
34	66	33	3.8659757209588
34	68	34	4.869130155239
34	70	35	6.6523318641192
34	72	36	4.0811594471718
34	74	37	4.973427140971
34	76	38	0.973
34	78	39	9.8094229342761
34	80	40	3.2421860456858
34	82	41	6.5046071594608
34	84	42	0.973
34	86	43	1.4218253412069
34	88	44	10.705045593214
34	90	45	0.973
34	92	46	7.0471629311923
34	94	47	5.713715884532
34	96	48	6.362503773908
34	98	49	4.0263033472061
34	100	50	0.53017418395225
34	102	51	3.8946058523337
34	104	52	1.5906469061735
34	106	53	10.342099991995
34	108	54	2.9111613001241
34	110	55	1.0098376468133
34	112	56	4.0692423052341
34	114	57	0.90979993819472
34	116	58	3.9689261551926
34	118	59	7.1238313891786
34	120	60	6.0899173234151
34	122	61	2.5501896678026
34	124	62	0.973
34	126	63	8.1414677505579
34	128	64	5.231406787189
34	130	65	0.23549292149332
34	132	66	4.4795450051944
34	134	67	5.1064844947617
34	136	68	6.8354653275335
34	138	69	4.9018421409191
34	140	70	0.973
34	142	71	0.69865766620583
34	144	72	4.5187202171666
34	146	73	6.5462375069853
33	66	33	0.0067289869766682
33	68	34	0.16412850120105
33	70	35	0.43124269670807
33	72	36	0.018435291945934
33	74	37	0.15459434653167
33	76	38	-1.1266257794341
33	78	39	0.93837723357137
33	80	40	-0.11115059559233
33	82	41	0.39341069350485
33	84	42	-0.85389557224698
33	86	43	-0.38619176892098
33	88	44	1.0729086025385
33	90	45	-1.0367776772473
33	92	46	0.51840081706177
33	94	47	0.28716616833117
33	96	48	0.37222588830628
33	98	49	0.0011910845059901
33	100	50	-0.54512605711352
33	102	51	0.00048761896323413
33	104	52	-0.36491866456345
33	106	53	0.99742116685957
33	108	54	-0.17324090225156
33	110	55	-0.46719461283647
33	112	56	0.028037701849826
33	114	57	-0.47530731826555
33	116	58	0.028696292429231
33	118	59	0.51885979087092
33	120	60	0.33479884068947
33	122	61	-0.22339877451304
33	124	62	-0.84427532320842
33	126	63	0.68628164730035
33	128	64	0.20581445493735
33	130	65	-0.58825385186356
33	132	66	0.10487160540652
33	134	67	0.19851902697701
33	136	68	0.45407219720073
33	138	69	0.13954503822606
33	140	70	-0.77450496051461
33	142	71	-0.50581782893278
33	144	72	0.12634270952549
33	146	73	0.43890267144889
32	64	32	25.286518999395
32	66	33	25.293247986372
32	68	34	25.457376487573
32	70	35	25.888619184281
32	72	36	25.907054476227
32	74	37	26.061648822758
32	76	38	24.935023043324
32	78	39	25.873400276896
32	80	40	25.762249681303
32	82	41	26.155660374808
32	84	42	25.301764802561
32	86	43	24.91557303364
32	88	44	25.988481636179
32	90	45	24.951703958932
32	92	46	25.470104775993
32	94	47	25.757270944324
32	96	48	26.129496832631
32	98	49	26.130687917137
32	100	50	25.585561860023
32	102	51	25.586049478986
32	104	52	25.221130814423
32	106	53	26.218551981283
32	108	54	26.045311079031
32	110	55	25.578116466195
32	112	56	25.606154168044
32	114	57	25.130846849779
32	116	58	25.159543142208
32	118	59	25.678402933079
32	120	60	26.013201773768
32	122	61	25.789802999255
32	124	62	24.945527676047
32	126	63	25.631809323347
32	128	64	25.837623778285
32	130	65	25.249369926421
32	132	66	25.354241531828
32	134	67	25.552760558805
32	136	68	26.006832756005
32	138	69	26.146377794231
32	140	70	25.371872833717
32	142	71	24.866055004784
32	144	72	24.99239771431
32	146	73	25.431300385758
31	62	31	76.65
31	64	32	76.65
31	66	33	76.65
31	68	34	76.65
31	70	35	76.65
31	72	36	76.65
31	74	37	76.65
31	76	38	76.65
31	78	39	76.65
31	80	40	76.65
31	82	41	76.65
31	84	42	76.65
31	86	43	76.65
31	88	44	76.65
31	90	45	76.65
31	92	46	76.65
31	94	47	76.65
31	96	48	76.65
31	98	49	76.65
31	100	50	76.65
31	102	51	76.65
31	104	52	76.65
31	106	53	76.65
31	108	54	76.65
31	110	55	76.65
31	112	56	76.65
31	114	57	76.65
31	116	58	76.65
31	118	59	76.65
31	120	60	76.65
31	122	61	76.65
31	124	62	76.65
31	126	63	76.65
31	128	64	76.65
31	130	65	76.65
31	132	66	76.65
31	134	67	76.65
31	136	68	76.65
31	138	69	76.65
31	140	70	76.65
31	142	71	76.65
31	144	72	76.65
31	146	73	76.65
30	62	31	27.6
30	64	32	27.6
30	66	33	52.886518999395
30	68	34	78.179766985767
30	70	35	103.63714347334
30	72	36	129.52576265762
30	74	37	155.43281713385
30	76	38	181.49446595661
30	78	39	206.42948899993
30	80	40	232.30288927683
30	82	41	258.06513895813
30	84	42	284.22079933294
30	86	43	309.5225641355
30	88	44	334.43813716914
30	90	45	360.42661880532
30	92	46	385.37832276425
30	94	47	410.84842754024
30	96	48	436.60569848457
30	98	49	462.7351953172
30	100	50	488.86588323433
30	102	51	514.45144509436
30	104	52	540.03749457334
30	106	53	565.25862538777
30	108	54	591.47717736905
30	110	55	617.52248844808
30	112	56	643.10060491428
30	114	57	668.70675908232
30	116	58	693.8376059321
30	118	59	718.99714907431
30	120	60	744.67555200739
30	122	61	770.68875378115
30	124	62	796.47855678041
30	126	63	821.42408445646
30	128	64	847.0558937798
30	130	65	872.89351755809
30	132	66	898.14288748451
30	134	67	923.49712901634
30	136	68	949.04988957514
30	138	69	975.05672233115
30	140	70	1001.2031001254
30	142	71	1026.5749729591
30	144	72	1051.4410279639
30	146	73	1076.4334256782
39	76	38	0.73712323631422
39	78	39	1.3896159070603
39	80	40	7.3173596862876
39	82	41	2.119478329721
39	84	42	1.9386744159695
39	86	43	4.8955871524551
39	88	44	3.3095543103842
39	90	45	0.973
39	92	46	1.9099105514865
39	94	47	0.73854978924076
39	96	48	5.8395130384695
39	98	49	3.6470516809663
39	100	50	0.98433877433339
39	102	51	5.7465497141349
39	104	52	0.973
39	106	53	2.6481328422678
39	108	54	7.3100961465955
39	110	55	2.6228497157923
39	112	56	0.973
39	114	57	3.8416095089507
39	116	58	1.913600620008
39	118	59	5.5722672157035
39	120	60	0.973
39	122	61	5.5602949021092
39	124	62	3.7680639038051
39	126	63	1.4204905375033
39	128	64	5.7372836740934
39	130	65	0.973
39	132	66	4.4549789340499
39	134	67	2.5097036553646
39	136	68	5.0572604244894
39	138	69	3.6182851739145
39	140	70	0.973
39	142	71	7.1073516148752
39	144	72	1.4659411794005
39	146	73	0.973
39	148	74	9.9928394178167
39	150	75	0.973
39	152	76	3.9408724333754
39	154	77	0.973
39	156	78	3.0677815566281
39	158	79	3.4670396140075
39	160	80	7.9906771409392
39	162	81	2.5243914163222
39	164	82	0.973
39	166	83	4.0465793824584
39	168	84	1.6500017747645
39	170	85	6.2025733786
39	172	86	0.6567995821417
39	174	87	7.4100381895995
39	176	88	0.93124261051964
39	178	89	0.973
38	76	38	-0.43818811245728
38	78	39	-0.3013278124854
38	80	40	0.84511111630127
38	82	41	-0.16961397102568
38	84	42	-0.20055549102835
38	86	43	0.37030611606315
38	88	44	0.05726610228885
38	90	45	-0.57725403900258
38	92	46	-0.19808275694959
38	94	47	-0.430737793562
38	96	48	0.58948977361433
38	98	49	0.14222746307496
38	100	50	-0.38471141410992
38	102	51	0.55202437809203
38	104	52	-1.141012736829
38	106	53	-0.026445796480402
38	108	54	0.88366261927877
38	110	55	-0.057298524887301
38	112	56	-0.70767187722959
38	114	57	0.20991986640729
38	116	58	-0.18420785316266
38	118	59	0.54569224349689
38	120	60	-0.60216186591424
38	122	61	0.54659429937601
38	124	62	0.1744014864089
38	126	63	-0.2939576280769
38	128	64	0.55598515144084
38	130	65	-0.59665142919403
38	132	66	0.31405833817553
38	134	67	-0.076730602537282
38	136	68	0.41733392793685
38	138	69	0.12629804376047
38	140	70	-0.85307044372894
38	142	71	0.8181492065778
38	144	72	-0.29258288629353
38	146	73	-0.865519272862
38	148	74	1.3683234828059
38	150	75	-0.99053852632642
38	152	76	0.21596791455522
38	154	77	-0.64277756027877
38	156	78	0.05913303012494
38	158	79	0.13723439304158
38	160	80	0.99428879830521
38	162	81	-0.085778230335563
38	164	82	-0.7133680251427
38	166	83	0.23805866972543
38	168	84	-0.24450963700656
38	170	85	0.6501808486646
38	172	86	-0.45125315990299
38	174	87	0.86027337738778
38	176	88	-0.40170821570791
38	178	89	-0.52040286641568
37	74	37	21.058876605129
37	76	38	20.620688492672
37	78	39	20.319360680186
37	80	40	21.164471796487
37	82	41	20.994857825462
37	84	42	20.794302334433
37	86	43	21.164608450497
37	88	44	21.221874552785
37	90	45	20.644620513783
37	92	46	20.446537756833
37	94	47	20.015799963271
37	96	48	20.605289736886
37	98	49	20.747517199961
37	100	50	20.362805785851
37	102	51	20.914830163943
37	104	52	19.773817427114
37	106	53	19.747371630633
37	108	54	20.631034249912
37	110	55	20.573735725025
37	112	56	19.866063847795
37	114	57	20.075983714202
37	116	58	19.89177586104
37	118	59	20.437468104537
37	120	60	19.835306238622
37	122	61	20.381900537998
37	124	62	20.556302024407
37	126	63	20.26234439633
37	128	64	20.818329547771
37	130	65	20.221678118577
37	132	66	20.535736456753
37	134	67	20.459005854215
37	136	68	20.876339782152
37	138	69	21.002637825913
37	140	70	20.149567382184
37	142	71	20.967716588762
37	144	72	20.675133702468
37	146	73	19.809614429606
37	148	74	21.177937912412
37	150	75	20.187399386086
37	152	76	20.403367300641
37	154	77	19.760589740362
37	156	78	19.819722770487
37	158	79	19.956957163529
37	160	80	20.951245961834
37	162	81	20.865467731498
37	164	82	20.152099706355
37	166	83	20.390158376081
37	168	84	20.145648739074
37	170	85	20.795829587739
37	172	86	20.344576427836
37	174	87	21.204849805224
37	176	88	20.803141589516
37	178	89	20.2827387231
36	72	36	76.65
36	74	37	76.65
36	76	38	76.65
36	78	39	76.65
36	80	40	76.65
36	82	41	76.65
36	84	42	76.65
36	86	43	76.65
36	88	44	76.65
36	90	45	76.65
36	92	46	76.65
36	94	47	76.65
36	96	48	76.65
36	98	49	76.65
36	100	50	76.65
36	102	51	76.65
36	104	52	76.65
36	106	53	76.65
36	108	54	76.65
36	110	55	76.65
36	112	56	76.65
36	114	57	76.65
36	116	58	76.65
36	118	59	76.65
36	120	60	76.65
36	122	61	76.65
36	124	62	76.65
36	126	63	76.65
36	128	64	76.65
36	130	65	76.65
36	132	66	76.65
36	134	67	76.65
36	136	68	76.65
36	138	69	76.65
36	140	70	76.65
36	142	71	76.65
36	144	72	76.65
36	146	73	76.65
36	148	74	76.65
36	150	75	76.65
36	152	76	76.65
36	154	77	76.65
36	156	78	76.65
36	158	79	76.65
36	160	80	76.65
36	162	81	76.65
36	164	82	76.65
36	166	83	76.65
36	168	84	76.65
36	170	85	76.65
36	172	86	76.65
36	174	87	76.65
36	176	88	76.65
36	178	89	76.65
35	72	36	27.6
35	74	37	27.6
35	76	38	48.658876605129
35	78	39	69.2795650978
35	80	40	89.598925777987
35	82	41	110.76339757447
35	84	42	131.75825539994
35	86	43	152.55255773437
35	88	44	173.71716618487
35	90	45	194.93904073765
35	92	46	215.58366125143
35	94	47	236.03019900827
35	96	48	256.04599897154
35	98	49	276.65128870842
35	100	50	297.39880590838
35	102	51	317.76161169424
35	104	52	338.67644185818
35	106	53	358.45025928529
35	108	54	378.19763091593
35	110	55	398.82866516584
35	112	56	419.40240089086
35	114	57	439.26846473866
35	116	58	459.34444845286
35	118	59	479.2362243139
35	120	60	499.67369241844
35	122	61	519.50899865706
35	124	62	539.89089919506
35	126	63	560.44720121946
35	128	64	580.70954561579
35	130	65	601.52787516357
35	132	66	621.74955328214
35	134	67	642.2852897389
35	136	68	662.74429559311
35	138	69	683.62063537526
35	140	70	704.62327320118
35	142	71	724.77284058336
35	144	72	745.74055717212
35	146	73	766.41569087459
35	148	74	786.2253053042
35	150	75	807.40324321661
35	152	76	827.59064260269
35	154	77	847.99400990333
35	156	78	867.7545996437
35	158	79	887.57432241418
35	160	80	907.53127957771
35	162	81	928.48252553955
35	164	82	949.34799327104
35	166	83	969.5000929774
35	168	84	989.89025135348
35	170	85	1010.0359000926
35	172	86	1030.8317296803
35	174	87	1051.1763061081
35	176	88	1072.3811559134
35	178	89	1093.1842975029
44	86	43	6.1374001617388
44	88	44	3.6762054318944
44	90	45	6.0341875913163
44	92	46	2.6093679010173
44	94	47	0.973
44	96	48	9.0662131405596
44	98	49	1.1828893105173
44	100	50	0.973
44	102	51	0.973
44	104	52	0.973
44	106	53	0.973
44	108	54	1.7996365030663
44	110	55	2.6688172610252
44	112	56	3.947035952128
44	114	57	0.973
44	116	58	0.973
44	118	59	1.2440831021838
44	120	60	9.6104527466864
44	122	61	0.973
44	124	62	13.17035679211
44	126	63	0.75611123042893
44	128	64	0.973
44	130	65	4.5998238746942
44	132	66	0.973
44	134	67	6.6990948832019
44	136	68	4.3804726587858
44	138	69	4.3930860824587
44	140	70	1.0240811741983
44	142	71	0.80910342479871
44	144	72	10.652772201203
44	146	73	0.973
44	148	74	0.973
44	150	75	12.837430110363
44	152	76	2.0890163668238
44	154	77	2.5117045191858
44	156	78	0.973
44	158	79	0.973
44	160	80	7.4846618028169
44	162	81	7.5858803565419
44	164	82	0.88154236733874
44	166	83	4.4128805850981
44	168	84	2.2567376484673
44	170	85	0.973
44	172	86	9.7167052787918
44	174	87	0.973
44	176	88	11.319884603864
44	178	89	0.973
44	180	90	0.973
43	86	43	0.19699452503119
43	88	44	-0.14997472520918
43	90	45	0.1807910297066
43	92	46	-0.29991266538855
43	94	47	-0.92771272128448
43	96	48	0.65003760822583
43	98	49	-0.4890099904723
43	100	50	-2.43397544249
43	102	51	-1.6491058538298
43	104	52	-1.248024230255
43	106	53	-1.489284550897
43	108	54	-0.23088216456282
43	110	55	-0.056644563567353
43	112	56	0.18957864388079
43	114	57	-0.76459761033952
43	116	58	-0.61937878257719
43	118	59	-0.31481893640095
43	120	60	1.3411026822475
43	122	61	-1.3064710677398
43	124	62	1.9694298500564
43	126	63	-0.43797452538147
43	128	64	-0.61900402760669
43	130	65	0.33868337020386
43	132	66	-1.164421308518
43	134	67	0.78775600012543
43	136	68	0.29830687516625
43	138	69	0.28716253089734
43	140	70	-0.37804192970652
43	142	71	-0.41644421054612
43	144	72	1.4636701434068
43	146	73	-0.95440715534863
43	148	74	-1.1744188328414
43	150	75	1.911792934661
43	152	76	-0.1785740468041
43	154	77	-0.092780139015986
43	156	78	-1.3660216889953
43	158	79	-0.55125781736357
43	160	80	0.96378931209276
43	162	81	0.91213878929813
43	164	82	-0.40841983166391
43	166	83	0.29010043925227
43	168	84	-0.13517657451739
43	170	85	-1.0466541197364
43	172	86	1.3306667717031
43	174	87	-0.80397141727325
43	176	88	1.5644082047732
43	178	89	-0.86855494373089
43	180	90	-0.53390614045835
42	84	42	28.798798441959
42	86	43	28.99579296699
42	88	44	28.845818241781
42	90	45	29.026609271487
42	92	46	28.726696606099
42	94	47	27.798983884814
42	96	48	28.44902149304
42	98	49	27.960011502568
42	100	50	25.526036060078
42	102	51	23.876930206248
42	104	52	22.628905975993
42	106	53	21.139621425096
42	108	54	20.908739260533
42	110	55	20.852094696966
42	112	56	21.041673340847
42	114	57	20.277075730507
42	116	58	19.65769694793
42	118	59	19.342878011529
42	120	60	20.683980693777
42	122	61	19.377509626037
42	124	62	21.346939476093
42	126	63	20.908964950712
42	128	64	20.289960923105
42	130	65	20.628644293309
42	132	66	19.464222984791
42	134	67	20.251978984916
42	136	68	20.550285860083
42	138	69	20.83744839098
42	140	70	20.459406461273
42	142	71	20.042962250727
42	144	72	21.506632394134
42	146	73	20.552225238785
42	148	74	19.377806405944
42	150	75	21.289599340605
42	152	76	21.111025293801
42	154	77	21.018245154785
42	156	78	19.65222346579
42	158	79	19.100965648426
42	160	80	20.064754960519
42	162	81	20.976893749817
42	164	82	20.568473918153
42	166	83	20.858574357405
42	168	84	20.723397782888
42	170	85	19.676743663152
42	172	86	21.007410434855
42	174	87	20.203439017581
42	176	88	21.767847222355
42	178	89	20.899292278624
42	180	90	20.365386138165
41	82	41	76.65
41	84	42	76.65
41	86	43	76.65
41	88	44	76.65
41	90	45	76.65
41	92	46	76.65
41	94	47	76.65
41	96	48	76.65
41	98	49	76.65
41	100	50	76.65
41	102	51	76.65
41	104	52	76.65
41	106	53	76.65
41	108	54	76.65
41	110	55	76.65
41	112	56	76.65
41	114	57	76.65
41	116	58	76.65
41	118	59	76.65
41	120	60	76.65
41	122	61	76.65
41	124	62	76.65
41	126	63	76.65
41	128	64	76.65
41	130	65	76.65
41	132	66	76.65
41	134	67	76.65
41	136	68	76.65
41	138	69	76.65
41	140	70	76.65
41	142	71	76.65
41	144	72	76.65
41	146	73	76.65
41	148	74	76.65
41	150	75	76.65
41	152	76	76.65
41	154	77	76.65
41	156	78	76.65
41	158	79	76.65
41	160	80	76.65
41	162	81	76.65
41	164	82	76.65
41	166	83	76.65
41	168	84	76.65
41	170	85	76.65
41	172	86	76.65
41	174	87	76.65
41	176	88	76.65
41	178	89	76.65
41	180	90	76.65
40	82	41	27.6
40	84	42	27.6
40	86	43	56.398798441959
40	88	44	85.394591408949
40	90	45	114.24040965073
40	92	46	143.26701892222
40	94	47	171.99371552832
40	96	48	199.79269941313
40	98	49	228.24172090617
40	100	50	256.20173240874
40	102	51	281.72776846882
40	104	52	305.60469867506
40	106	53	328.23360465106
40	108	54	349.37322607615
40	110	55	370.28196533669
40	112	56	391.13406003365
40	114	57	412.1757333745
40	116	58	432.45280910501
40	118	59	452.11050605294
40	120	60	471.45338406447
40	122	61	492.13736475824
40	124	62	511.51487438428
40	126	63	532.86181386037
40	128	64	553.77077881108
40	130	65	574.06073973419
40	132	66	594.6893840275
40	134	67	614.15360701229
40	136	68	634.40558599721
40	138	69	654.95587185729
40	140	70	675.79332024827
40	142	71	696.25272670954
40	144	72	716.29568896027
40	146	73	737.8023213544
40	148	74	758.35454659319
40	150	75	777.73235299913
40	152	76	799.02195233974
40	154	77	820.13297763354
40	156	78	841.15122278832
40	158	79	860.80344625411
40	160	80	879.90441190254
40	162	81	899.96916686306
40	164	82	920.94606061288
40	166	83	941.51453453103
40	168	84	962.37310888843
40	170	85	983.09650667132
40	172	86	1002.7732503345
40	174	87	1023.7806607693
40	176	88	1043.9840997869
40	178	89	1065.7519470093
40	180	90	1086.6512392879
49	96	48	2.9030584082569
49	98	49	15.328823635641
49	100	50	6.7314192349311
49	102	51	0.973
49	104	52	5.2882217432122
49	106	53	15.849265677401
49	108	54	3.8939495910171
49	110	55	0.973
49	112	56	0.973
49	114	57	0.973
49	116	58	0.973
49	118	59	0.973
49	120	60	0.973
49	122	61	8.4569775392222
49	124	62	0.973
49	126	63	12.970829375892
49	128	64	3.3867378772914
49	130	65	0.973
49	132	66	8.9446201898061
49	134	67	0.973
49	136	68	3.4268214043142
49	138	69	6.4468206643317
49	140	70	4.3140360982665
49	142	71	4.9051042526817
49	144	72	0.973
49	146	73	8.982695317782
49	148	74	0.79936056080833
49	150	75	0.973
49	152	76	9.2863549871423
49	154	77	4.5422740883282
49	156	78	0.973
49	158	79	3.8538318637205
49	160	80	0.973
49	162	81	0.973
49	164	82	12.218929254691
49	166	83	0.973
49	168	84	7.4502769048388
49	170	85	0.973
49	172	86	0.973
49	174	87	12.72034771203
49	176	88	0.973
49	178	89	11.066569303594
49	180	90	0.973
49	182	91	6.6893730598964
49	184	92	16.862614572389
48	96	48	-0.42849456577096
48	98	49	1.0061981094768
48	100	50	-0.0088635730789974
48	102	51	-1.2469660477946
48	104	52	-0.12315748434048
48	106	53	1.0898699221434
48	108	54	-0.32226631301455
48	110	55	-2.5229824098106
48	112	56	-1.8406601592638
48	114	57	-2.3564902397534
48	116	58	-3.7055411465451
48	118	59	-1.6354439431481
48	120	60	-1.0710190931987
48	122	61	0.97168342382418
48	124	62	-3.0877402430608
48	126	63	1.9467975029256
48	128	64	0.069911446402365
48	130	65	-0.80719717344887
48	132	66	1.1255197976116
48	134	67	-2.2405677132948
48	136	68	0.14659074424361
48	138	69	0.73632508090517
48	140	70	0.28566446457403
48	142	71	0.38487867471216
48	144	72	-0.87780097040557
48	146	73	1.1676699639781
48	148	74	-0.42772599487297
48	150	75	-1.1420430797917
48	152	76	1.2561506573344
48	154	77	0.2995954855944
48	156	78	-0.54652496801267
48	158	79	0.18016592187156
48	160	80	-0.98884845598024
48	162	81	-0.59432896081442
48	164	82	1.8181798707991
48	166	83	-0.73564882893461
48	168	84	0.86877597963672
48	170	85	-0.76463483447208
48	172	86	-0.60093780415908
48	174	87	1.8425754533703
48	176	88	-1.2154648616541
48	178	89	1.496825929616
48	180	90	-1.9179860627813
48	182	91	0.74807173357818
48	184	92	2.4114254799206
47	94	47	34.552777803829
47	96	48	34.124283238058
47	98	49	35.130481347535
47	100	50	35.121617774456
47	102	51	33.874651726661
47	104	52	33.751494242321
47	106	53	34.841364164464
47	108	54	34.51909785145
47	110	55	31.996115441639
47	112	56	30.155455282375
47	114	57	27.798965042622
47	116	58	24.093423896077
47	118	59	22.457979952929
47	120	60	21.38696085973
47	122	61	22.358644283554
47	124	62	19.270904040493
47	126	63	21.217701543419
47	128	64	21.287612989821
47	130	65	20.480415816373
47	132	66	21.605935613984
47	134	67	19.365367900689
47	136	68	19.511958644933
47	138	69	20.248283725838
47	140	70	20.533948190412
47	142	71	20.918826865124
47	144	72	20.041025894719
47	146	73	21.208695858697
47	148	74	20.780969863824
47	150	75	19.638926784032
47	152	76	20.895077441367
47	154	77	21.194672926961
47	156	78	20.648147958948
47	158	79	20.82831388082
47	160	80	19.83946542484
47	162	81	19.245136464025
47	164	82	21.063316334824
47	166	83	20.32766750589
47	168	84	21.196443485526
47	170	85	20.431808651054
47	172	86	19.830870846895
47	174	87	21.673446300265
47	176	88	20.457981438611
47	178	89	21.954807368227
47	180	90	20.036821305446
47	182	91	20.784893039024
47	184	92	23.196318518945
46	92	46	76.65
46	94	47	76.65
46	96	48	76.65
46	98	49	76.65
46	100	50	76.65
46	102	51	76.65
46	104	52	76.65
46	106	53	76.65
46	108	54	76.65
46	110	55	76.65
46	112	56	76.65
46	114	57	76.65
46	116	58	76.65
46	118	59	76.65
46	120	60	76.65
46	122	61	76.65
46	124	62	76.65
46	126	63	76.65
46	128	64	76.65
46	130	65	76.65
46	132	66	76.65
46	134	67	76.65
46	136	68	76.65
46	138	69	76.65
46	140	70	76.65
46	142	71	76.65
46	144	72	76.65
46	146	73	76.65
46	148	74	76.65
46	150	75	76.65
46	152	76	76.65
46	154	77	76.65
46	156	78	76.65
46	158	79	76.65
46	160	80	76.65
46	162	81	76.65
46	164	82	76.65
46	166	83	76.65
46	168	84	76.65
46	170	85	76.65
46	172	86	76.65
46	174	87	76.65
46	176	88	76.65
46	178	89	76.65
46	180	90	76.65
46	182	91	76.65
46	184	92	76.65
45	92	46	27.6
45	94	47	27.6
45	96	48	62.152777803829
45	98	49	96.277061041887
45	100	50	131.40754238942
45	102	51	166.52916016388
45	104	52	200.40381189054
45	106	53	234.15530613286
45	108	54	268.99667029732
45	110	55	303.51576814877
45	112	56	335.51188359041
45	114	57	365.66733887279
45	116	58	393.46630391541
45	118	59	417.55972781149
45	120	60	440.01770776442
45	122	61	461.40466862415
45	124	62	483.7633129077
45	126	63	503.03421694819
45	128	64	524.25191849161
45	130	65	545.53953148143
45	132	66	566.01994729781
45	134	67	587.62588291179
45	136	68	606.99125081248
45	138	69	626.50320945741
45	140	70	646.75149318325
45	142	71	667.28544137366
45	144	72	688.20426823879
45	146	73	708.24529413351
45	148	74	729.4539899922
45	150	75	750.23495985603
45	152	76	769.87388664006
45	154	77	790.76896408142
45	156	78	811.96363700839
45	158	79	832.61178496733
45	160	80	853.44009884815
45	162	81	873.27956427299
45	164	82	892.52470073702
45	166	83	913.58801707184
45	168	84	933.91568457773
45	170	85	955.11212806326
45	172	86	975.54393671431
45	174	87	995.37480756121
45	176	88	1017.0482538615
45	178	89	1037.5062353001
45	180	90	1059.4610426683
45	182	91	1079.4978639738
45	184	92	1100.2827570128

