version 2
run General-6-20200211-12:44:37-39082
attr configname General
attr datetime 20200211-12:44:37
attr experiment General
attr inifile omnetpp.ini
attr iterationvars $0=6
attr iterationvarsf 6-
attr measurement $0=6
attr network scenario
attr processid 39082
attr repetition 0
attr replication #0
attr resultdir veins-runall-output
attr runnumber 6
attr seedset 6
param *.playgroundSizeX 10672m
param *.playgroundSizeY 7105m
param *.playgroundSizeZ 10000m
param *.annotations.draw false
param *.world.useTorus false
param *.world.use2D false
param *.manager.updateInterval 1s
param *.manager.host "\"localhost\""
param *.manager.port 9999
param *.manager.moduleType "\"org.car2x.veins.nodes.Car\""
param *.manager.moduleName "\"node\""
param *.manager.moduleDisplayString "\"\""
param *.manager.autoShutdown true
param *.manager.margin 25
param *.manager.launchConfig "xmldoc(\"sumo-launchd.launch.xml\")"
param *.manager.trafficLightModuleType "\"org.car2x.veins.nodes.TrafficLight\""
param *.manager.trafficLightModuleName "\"trafficLight\""
param *.manager.trafficLightModuleDisplayString default
param *.manager.trafficLightFilter "\"10\""
param *.manager.ignoreGuiCommands true
param *.trafficLight[*].mobility.x 0
param *.trafficLight[*].mobility.y 0
param *.trafficLight[*].mobility.z 3
param *.trafficLight[*].applType "\"org.car2x.veins.subprojects.veins_testsims.traci.TraCITrafficLightApp\""
param *.trafficLight[*].logicType "\"org.car2x.veins.subprojects.veins_testsims.traci.TraCITrafficLightTestLogic\""
param *.trafficLight[*].appl.headerLength "80 bit"
param *.trafficLight[*].appl.sendBeacons false
param *.trafficLight[*].appl.dataOnSch true
param *.connectionManager.sendDirect true
param *.connectionManager.maxInterfDist 2600m
param *.connectionManager.drawMaxIntfDist false
param *.**.nic.mac1609_4.useServiceChannel false
param *.**.nic.mac1609_4.txPower 20mW
param *.**.nic.mac1609_4.bitrate 18Mbps
param *.**.nic.phy80211p.minPowerLevel -110dBm
param *.**.nic.phy80211p.useNoiseFloor true
param *.**.nic.phy80211p.noiseFloor -98dBm
param *.**.nic.phy80211p.decider "xmldoc(\"config.xml\")"
param *.**.nic.phy80211p.analogueModels "xmldoc(\"config.xml\")"
param *.**.nic.phy80211p.usePropagationDelay true
param *.node[*].applType "\"org.car2x.veins.subprojects.veins_testsims.traci.TraCITestApp\""
param *.node[0].appl.testNumber 6
param *.node[*].appl.testNumber -1
param *.node[*].veinsmobilityType "\"org.car2x.veins.modules.mobility.traci.TraCIMobility\""
param *.node[*].veinsmobility.x 0
param *.node[*].veinsmobility.y 0
param *.node[*].veinsmobility.z 1.895
param *.node[*].veinsmobility.accidentCount 0
param *.node[*].veinsmobility.setHostSpeed true

vector 0 scenario.node[0].veinsmobility posx ETV
vector 1 scenario.node[0].veinsmobility posy ETV
vector 2 scenario.node[0].veinsmobility speed ETV
vector 3 scenario.node[0].veinsmobility acceleration ETV
vector 4 scenario.node[0].veinsmobility co2emission ETV
vector 5 scenario.node[1].veinsmobility posx ETV
vector 6 scenario.node[1].veinsmobility posy ETV
vector 7 scenario.node[1].veinsmobility speed ETV
vector 8 scenario.node[1].veinsmobility acceleration ETV
vector 9 scenario.node[1].veinsmobility co2emission ETV
vector 10 scenario.node[2].veinsmobility posx ETV
vector 11 scenario.node[2].veinsmobility posy ETV
vector 12 scenario.node[2].veinsmobility speed ETV
vector 13 scenario.node[2].veinsmobility acceleration ETV
vector 14 scenario.node[2].veinsmobility co2emission ETV
vector 15 scenario.node[3].veinsmobility posx ETV
vector 16 scenario.node[3].veinsmobility posy ETV
vector 17 scenario.node[3].veinsmobility speed ETV
vector 18 scenario.node[3].veinsmobility acceleration ETV
vector 19 scenario.node[3].veinsmobility co2emission ETV
vector 20 scenario.node[4].veinsmobility posx ETV
vector 21 scenario.node[4].veinsmobility posy ETV
vector 22 scenario.node[4].veinsmobility speed ETV
vector 23 scenario.node[4].veinsmobility acceleration ETV
vector 24 scenario.node[4].veinsmobility co2emission ETV
vector 25 scenario.node[5].veinsmobility posx ETV
vector 26 scenario.node[5].veinsmobility posy ETV
vector 27 scenario.node[5].veinsmobility speed ETV
vector 28 scenario.node[5].veinsmobility acceleration ETV
vector 29 scenario.node[5].veinsmobility co2emission ETV
vector 30 scenario.node[6].veinsmobility posx ETV
vector 31 scenario.node[6].veinsmobility posy ETV
vector 32 scenario.node[6].veinsmobility speed ETV
vector 33 scenario.node[7].veinsmobility posx ETV
vector 34 scenario.node[7].veinsmobility posy ETV
vector 35 scenario.node[6].veinsmobility acceleration ETV
vector 36 scenario.node[6].veinsmobility co2emission ETV
vector 37 scenario.node[7].veinsmobility speed ETV
vector 38 scenario.node[7].veinsmobility acceleration ETV
vector 39 scenario.node[7].veinsmobility co2emission ETV
vector 40 scenario.node[8].veinsmobility posx ETV
vector 41 scenario.node[8].veinsmobility posy ETV
vector 42 scenario.node[8].veinsmobility speed ETV
4	6	3	9.0549579066719
4	8	4	8.4988778463559
4	10	5	0.046631045706452
4	12	6	1.346729538445
4	14	7	6.8698411864162
4	16	8	6.3845112230278
4	18	9	10.609141425341
4	20	10	-0.62763525208726
4	22	11	9.4819023524904
4	24	12	4.4429678264677
4	26	13	-0.10558168561576
4	28	14	11.802268687823
4	30	15	5.4601311759271
4	32	16	0.92545498520847
4	34	17	5.8794977887355
4	36	18	6.1640655057657
4	38	19	3.4203111609862
4	40	20	10.69111669374
4	42	21	0.973
4	44	22	2.9733256023771
4	46	23	4.3465146531251
4	48	24	11.995564277744
4	50	25	-0.5821653511519
4	52	26	14.75071866116
4	54	27	1.291939627666
4	56	28	3.6257707714849
4	58	29	9.1575941603104
4	60	30	1.9506600438733
4	62	31	1.8459858356143
4	64	32	10.98705410864
4	66	33	4.0683323653584
4	68	34	2.9720182905125
4	70	35	6.1153635486069
4	72	36	2.7343054276622
4	74	37	11.740415573078
3	6	3	0.52293095912319
3	8	4	0.42359790159389
3	10	5	-0.69673392002005
3	12	6	-0.50619142258074
3	14	7	0.25186112383381
3	16	8	0.1763841798529
3	18	9	0.71072384552099
3	20	10	-0.7868874395499
3	22	11	0.57219625858124
3	24	12	-0.10559434723109
3	26	13	-0.71066696522757
3	28	14	0.88155823771376
3	30	15	0.024184075067751
3	32	16	-0.57467688911129
3	34	17	0.10187313426286
3	36	18	0.13466655404773
3	38	19	-0.23182501236442
3	40	20	0.72010953607969
3	42	21	-0.95613441278692
3	44	22	-0.27706848678645
3	46	23	-0.081923894234933
3	48	24	0.92324440763332
3	50	25	-0.77525683294516
3	52	26	1.2576653023716
3	54	27	-0.53113030199893
3	56	28	-0.20612035389058
3	58	29	0.52156763069797
3	60	30	-0.43808835558593
3	62	31	-0.44074191909749
3	64	32	0.77513791888487
3	66	33	-0.15504761959892
3	68	34	-0.29476078238804
3	70	35	0.13075266627129
3	72	36	-0.32156901131384
3	74	37	0.86154521314893
2	4	2	29.997433819196
2	6	3	30.520364778319
2	8	4	30.943962679913
2	10	5	30.247228759893
2	12	6	29.741037337312
2	14	7	29.992898461146
2	16	8	30.169282640999
2	18	9	30.88000648652
2	20	10	30.09311904697
2	22	11	30.665315305551
2	24	12	30.55972095832
2	26	13	29.849053993093
2	28	14	30.730612230806
2	30	15	30.754796305874
2	32	16	30.180119416763
2	34	17	30.281992551026
2	36	18	30.416659105073
2	38	19	30.184834092709
2	40	20	30.904943628789
2	42	21	29.948809216002
2	44	22	29.671740729215
2	46	23	29.58981683498
2	48	24	30.513061242614
2	50	25	29.737804409669
2	52	26	30.99546971204
2	54	27	30.464339410041
2	56	28	30.258219056151
2	58	29	30.779786686849
2	60	30	30.341698331263
2	62	31	29.900956412165
2	64	32	30.67609433105
2	66	33	30.521046711451
2	68	34	30.226285929063
2	70	35	30.357038595334
2	72	36	30.035469584021
2	74	37	30.89701479717
1	2	1	76.65
1	4	2	76.65
1	6	3	76.65
1	8	4	76.65
1	10	5	76.65
1	12	6	76.65
1	14	7	76.65
1	16	8	76.65
1	18	9	76.65
1	20	10	76.65
1	22	11	76.65
1	24	12	76.65
1	26	13	76.65
1	28	14	76.65
1	30	15	76.65
1	32	16	76.65
1	34	17	76.65
1	36	18	76.65
1	38	19	76.65
1	40	20	76.65
1	42	21	76.65
1	44	22	76.65
1	46	23	76.65
1	48	24	76.65
1	50	25	76.65
1	52	26	76.65
1	54	27	76.65
1	56	28	76.65
1	58	29	76.65
1	60	30	76.65
1	62	31	76.65
1	64	32	76.65
1	66	33	76.65
1	68	34	76.65
1	70	35	76.65
1	72	36	76.65
1	74	37	76.65
0	2	1	27.6
0	4	2	27.6
0	6	3	57.597433819196
0	8	4	88.117798597515
0	10	5	119.06176127743
0	12	6	149.30899003732
0	14	7	179.05002737463
0	16	8	209.04292583578
0	18	9	239.21220847678
0	20	10	270.0922149633
0	22	11	300.18533401027
0	24	12	330.85064931582
0	26	13	361.41037027414
0	28	14	391.25942426723
0	30	15	421.99003649804
0	32	16	452.74483280391
0	34	17	482.92495222068
0	36	18	513.2069447717
0	38	19	543.62360387678
0	40	20	573.80843796948
0	42	21	604.71338159827
0	44	22	634.66219081428
0	46	23	664.33393154349
0	48	24	693.92374837847
0	50	25	724.43680962108
0	52	26	754.17461403075
0	54	27	785.17008374279
0	56	28	815.63442315284
0	58	29	845.89264220899
0	60	30	876.67242889583
0	62	31	907.0141272271
0	64	32	936.91508363926
0	66	33	967.59117797031
0	68	34	998.11222468176
0	70	35	1028.3385106108
0	72	36	1058.6955492062
0	74	37	1088.7310187902
vector 43 scenario.node[8].veinsmobility acceleration ETV
vector 44 scenario.node[8].veinsmobility co2emission ETV
vector 45 scenario.node[9].veinsmobility posx ETV
vector 46 scenario.node[9].veinsmobility posy ETV
vector 47 scenario.node[9].veinsmobility speed ETV
vector 48 scenario.node[9].veinsmobility acceleration ETV
vector 49 scenario.node[9].veinsmobility co2emission ETV
9	16	8	0.973
9	18	9	7.571291812718
9	20	10	5.5542453148332
9	22	11	1.4446197809318
9	24	12	8.6315642222256
9	26	13	9.2060826741665
9	28	14	0.973
9	30	15	5.2489198220867
9	32	16	7.1687562163273
9	34	17	0.973
9	36	18	6.9480686769379
9	38	19	8.8579526330423
9	40	20	1.393928211888
9	42	21	8.2398834073704
9	44	22	7.6306723667609
9	46	23	4.4593470779989
9	48	24	4.5196711937101
9	50	25	0.973
9	52	26	10.368813933513
9	54	27	6.5199012956322
9	56	28	5.7030773608943
9	58	29	2.879427740752
9	60	30	0.973
9	62	31	12.713069098051
9	64	32	0.12855600397197
9	66	33	4.6251791918359
9	68	34	9.9320444496715
9	70	35	0.973
9	72	36	4.293712094635
9	74	37	11.022284358618
9	76	38	6.614370101632
9	78	39	5.0961769262865
9	80	40	-0.49542952425149
9	82	41	7.175801898232
9	84	42	6.0071804740946
9	86	43	2.0683739619587
9	88	44	-0.045478732054493
8	16	8	-0.89912858465686
8	18	9	0.44805449608248
8	20	10	0.14435671095271
8	22	11	-0.4477252420038
8	24	12	0.58708500838839
8	26	13	0.63133426685818
8	28	14	-1.0425417660736
8	30	15	0.1067264751764
8	32	16	0.37020253634546
8	34	17	-0.83901198150124
8	36	18	0.36283537116833
8	38	19	0.6079941970529
8	40	20	-0.46267451299354
8	42	21	0.51538926071953
8	44	22	0.40517952258233
8	46	23	-0.0453104210319
8	48	24	-0.035315734567121
8	50	25	-1.1524176645325
8	52	26	0.82356644805986
8	54	27	0.25436424650252
8	56	28	0.13136080303229
8	58	29	-0.26347748260014
8	60	30	-0.91773413890041
8	62	31	1.1354617764009
8	64	32	-0.65231363754719
8	66	33	0.0050356012070552
8	68	34	0.73234529723413
8	70	35	-1.2770192582393
8	72	36	-0.021746827522293
8	74	37	0.91510820807889
8	76	38	0.26532111468259
8	78	39	0.046120784129016
8	80	40	-0.74252155283466
8	82	41	0.36312700272538
8	84	42	0.18530205683783
8	86	43	-0.37131511070766
8	88	44	-0.66896398121025
7	14	7	28.609053899346
7	16	8	27.709925314689
7	18	9	28.157979810772
7	20	10	28.302336521724
7	22	11	27.854611279721
7	24	12	28.441696288109
7	26	13	29.073030554967
7	28	14	28.030488788894
7	30	15	28.13721526407
7	32	16	28.507417800415
7	34	17	27.668405818914
7	36	18	28.031241190083
7	38	19	28.639235387135
7	40	20	28.176560874142
7	42	21	28.691950134861
7	44	22	29.097129657444
7	46	23	29.051819236412
7	48	24	29.016503501845
7	50	25	27.864085837312
7	52	26	28.687652285372
7	54	27	28.942016531875
7	56	28	29.073377334907
7	58	29	28.809899852307
7	60	30	27.892165713406
7	62	31	29.027627489807
7	64	32	28.37531385226
7	66	33	28.380349453467
7	68	34	29.112694750701
7	70	35	27.835675492462
7	72	36	27.81392866494
7	74	37	28.729036873019
7	76	38	28.994357987701
7	78	39	29.04047877183
7	80	40	28.297957218995
7	82	41	28.661084221721
7	84	42	28.846386278559
7	86	43	28.475071167851
7	88	44	27.806107186641
6	12	6	76.65
6	14	7	76.65
6	16	8	76.65
6	18	9	76.65
6	20	10	76.65
6	22	11	76.65
6	24	12	76.65
6	26	13	76.65
6	28	14	76.65
6	30	15	76.65
6	32	16	76.65
6	34	17	76.65
6	36	18	76.65
6	38	19	76.65
6	40	20	76.65
6	42	21	76.65
6	44	22	76.65
6	46	23	76.65
6	48	24	76.65
6	50	25	76.65
6	52	26	76.65
6	54	27	76.65
6	56	28	76.65
6	58	29	76.65
6	60	30	76.65
6	62	31	76.65
6	64	32	76.65
6	66	33	76.65
6	68	34	76.65
6	70	35	76.65
6	72	36	76.65
6	74	37	76.65
6	76	38	76.65
6	78	39	76.65
6	80	40	76.65
6	82	41	76.65
6	84	42	76.65
6	86	43	76.65
6	88	44	76.65
5	12	6	27.6
5	14	7	27.6
5	16	8	56.209053899346
5	18	9	83.918979214035
5	20	10	112.07695902481
5	22	11	140.37929554653
5	24	12	168.23390682625
5	26	13	196.67560311436
5	28	14	225.74863366933
5	30	15	253.77912245822
5	32	16	281.91633772229
5	34	17	310.42375552271
5	36	18	338.09216134162
5	38	19	366.1234025317
5	40	20	394.76263791884
5	42	21	422.93919879298
5	44	22	451.63114892784
5	46	23	480.72827858529
5	48	24	509.7800978217
5	50	25	538.79660132354
5	52	26	566.66068716086
5	54	27	595.34833944623
5	56	28	624.2903559781
5	58	29	653.36373331301
5	60	30	682.17363316532
5	62	31	710.06579887872
5	64	32	739.09342636853
5	66	33	767.46874022079
5	68	34	795.84908967426
5	70	35	824.96178442496
5	72	36	852.79745991742
5	74	37	880.61138858236
5	76	38	909.34042545538
5	78	39	938.33478344308
5	80	40	967.37526221491
5	82	41	995.6732194339
5	84	42	1024.3343036556
5	86	43	1053.1806899342
5	88	44	1081.655761102
vector 50 scenario.node[10].veinsmobility posx ETV
vector 51 scenario.node[10].veinsmobility posy ETV
vector 52 scenario.node[10].veinsmobility speed ETV
vector 53 scenario.node[10].veinsmobility acceleration ETV
vector 54 scenario.node[10].veinsmobility co2emission ETV
14	26	13	0.973
14	28	14	4.3729879805779
14	30	15	8.8381248682011
14	32	16	6.1443901092633
14	34	17	0.15586116913647
14	36	18	6.3080158955641
14	38	19	4.6751250531466
14	40	20	7.0759005603274
14	42	21	0.47102006867537
14	44	22	5.7960442460378
14	46	23	3.3909990412772
14	48	24	3.6091145658986
14	50	25	6.1730644351122
14	52	26	2.5518715447115
14	54	27	6.6825782648109
14	56	28	1.3956135536307
14	58	29	11.453308106654
14	60	30	0.973
14	62	31	9.2614485980119
14	64	32	3.8380167674443
14	66	33	1.1088404374297
14	68	34	13.422414892824
14	70	35	1.1728229662027
14	72	36	7.3091818646709
14	74	37	0.973
14	76	38	11.580728304081
14	78	39	2.6700811360106
14	80	40	6.3832977497972
14	82	41	0.50148117145234
14	84	42	2.4753951387498
14	86	43	11.976162339161
14	88	44	1.1011250748862
14	90	45	7.7812037811748
14	92	46	3.6360046522576
14	94	47	2.2594736756806
14	96	48	6.4123025478834
14	98	49	0.973
14	100	50	4.8699131565925
13	26	13	-1.0121632965747
13	28	14	0.014476087060757
13	30	15	0.6544062285684
13	32	16	0.24133810924832
13	34	17	-0.63323444430716
13	36	18	0.28271973493975
13	38	19	0.036917676916346
13	40	20	0.3756853613304
13	42	21	-0.58749160193838
13	44	22	0.20473181270063
13	46	23	-0.14969052001834
13	48	24	-0.11298538965639
13	50	25	0.26115354057401
13	52	26	-0.27218583819922
13	54	27	0.33413319883402
13	56	28	-0.44422700407449
13	58	29	1.0031779732089
13	60	30	-1.2539594013942
13	62	31	0.7172758692177
13	64	32	-0.087725587072782
13	66	33	-0.48545344825834
13	68	34	1.2768754970748
13	70	35	-0.4926191662671
13	72	36	0.39367909147404
13	74	37	-1.0588856617687
13	76	38	1.0196263769176
13	78	39	-0.27359216858167
13	80	40	0.26116982975509
13	82	41	-0.58744244487025
13	84	42	-0.28479362279177
13	86	43	1.0635402618209
13	88	44	-0.50385496532544
13	90	45	0.45731448428705
13	92	46	-0.14038894081023
13	94	47	-0.33230139012448
13	96	48	0.26833292318042
13	98	49	-1.0898026465438
13	100	50	0.084213377907872
12	24	12	28.185867935272
12	26	13	27.173704638697
12	28	14	27.188180725758
12	30	15	27.842586954326
12	32	16	28.083925063575
12	34	17	27.450690619267
12	36	18	27.733410354207
12	38	19	27.770328031123
12	40	20	28.146013392454
12	42	21	27.558521790515
12	44	22	27.763253603216
12	46	23	27.613563083198
12	48	24	27.500577693541
12	50	25	27.761731234115
12	52	26	27.489545395916
12	54	27	27.82367859475
12	56	28	27.379451590676
12	58	29	28.382629563885
12	60	30	27.12867016249
12	62	31	27.845946031708
12	64	32	27.758220444635
12	66	33	27.272766996377
12	68	34	28.549642493452
12	70	35	28.057023327185
12	72	36	28.450702418659
12	74	37	27.39181675689
12	76	38	28.411443133808
12	78	39	28.137850965226
12	80	40	28.399020794981
12	82	41	27.811578350111
12	84	42	27.526784727319
12	86	43	28.59032498914
12	88	44	28.086470023814
12	90	45	28.543784508101
12	92	46	28.403395567291
12	94	47	28.071094177167
12	96	48	28.339427100347
12	98	49	27.249624453803
12	100	50	27.333837831711
11	22	11	76.65
11	24	12	76.65
11	26	13	76.65
11	28	14	76.65
11	30	15	76.65
11	32	16	76.65
11	34	17	76.65
11	36	18	76.65
11	38	19	76.65
11	40	20	76.65
11	42	21	76.65
11	44	22	76.65
11	46	23	76.65
11	48	24	76.65
11	50	25	76.65
11	52	26	76.65
11	54	27	76.65
11	56	28	76.65
11	58	29	76.65
11	60	30	76.65
11	62	31	76.65
11	64	32	76.65
11	66	33	76.65
11	68	34	76.65
11	70	35	76.65
11	72	36	76.65
11	74	37	76.65
11	76	38	76.65
11	78	39	76.65
11	80	40	76.65
11	82	41	76.65
11	84	42	76.65
11	86	43	76.65
11	88	44	76.65
11	90	45	76.65
11	92	46	76.65
11	94	47	76.65
11	96	48	76.65
11	98	49	76.65
11	100	50	76.65
10	22	11	27.6
10	24	12	27.6
10	26	13	55.785867935272
10	28	14	82.959572573969
10	30	15	110.14775329973
10	32	16	137.99034025405
10	34	17	166.07426531763
10	36	18	193.52495593689
10	38	19	221.2583662911
10	40	20	249.02869432223
10	42	21	277.17470771468
10	44	22	304.73322950519
10	46	23	332.49648310841
10	48	24	360.11004619161
10	50	25	387.61062388515
10	52	26	415.37235511927
10	54	27	442.86190051518
10	56	28	470.68557910993
10	58	29	498.06503070061
10	60	30	526.44766026449
10	62	31	553.57633042698
10	64	32	581.42227645869
10	66	33	609.18049690333
10	68	34	636.4532638997
10	70	35	665.00290639315
10	72	36	693.05992972034
10	74	37	721.510632139
10	76	38	748.90244889589
10	78	39	777.3138920297
10	80	40	805.45174299492
10	82	41	833.8507637899
10	84	42	861.66234214001
10	86	43	889.18912686733
10	88	44	917.77945185647
10	90	45	945.86592188029
10	92	46	974.40970638839
10	94	47	1002.8131019557
10	96	48	1030.8841961328
10	98	49	1059.2236232332
10	100	50	1086.473247687
19	36	18	0.973
19	38	19	8.7656023505817
19	40	20	2.8067614496698
19	42	21	2.4722530214755
19	44	22	6.1995125269225
19	46	23	5.1887010820362
19	48	24	0.57091125970782
19	50	25	4.4369048993526
19	52	26	6.9145395049439
19	54	27	0.38250473711102
19	56	28	5.8641351389334
19	58	29	8.1089315714804
19	60	30	3.0251732716807
19	62	31	5.9013711644349
19	64	32	0.65160827145067
19	66	33	6.7989365759798
19	68	34	1.447709497637
19	70	35	9.7662920073525
19	72	36	2.5682175506951
19	74	37	-0.26314758624878
19	76	38	13.474512201954
19	78	39	0.973
19	80	40	-0.11449957326642
19	82	41	8.1601509392387
19	84	42	9.5297656236652
19	86	43	5.4158125471196
19	88	44	2.3878507627799
19	90	45	0.973
19	92	46	12.828985099464
19	94	47	0.973
19	96	48	13.534816598956
19	98	49	0.973
19	100	50	6.1941150496454
19	102	51	9.3043846262227
19	104	52	5.1813406041148
19	106	53	0.973
19	108	54	3.6496507704585
19	110	55	12.065336768713
19	112	56	0.973
18	36	18	-1.0027814763598
18	38	19	0.6573272900423
18	40	20	-0.23075939028058
18	42	21	-0.27363085106481
18	44	22	0.28272506373469
18	46	23	0.12425474915653
18	48	24	-0.56181455100887
18	50	25	0.031846217229031
18	52	26	0.391742648324
18	54	27	-0.58810459147207
18	56	28	0.24871918000281
18	58	29	0.55960003193468
18	60	30	-0.19821544387378
18	62	31	0.22647401026916
18	64	32	-0.55157871020492
18	66	33	0.37068583758082
18	68	34	-0.42830911232159
18	70	35	0.79419417993631
18	72	36	-0.27146273874678
18	74	37	-0.68884672655258
18	76	38	1.3163176212693
18	78	39	-0.78532940230798
18	80	40	-0.66409180895425
18	82	41	0.58496512274724
18	84	42	0.74337057117373
18	86	43	0.12922451645136
18	88	44	-0.30785499501508
18	90	45	-0.98799380217679
18	92	46	1.2263470472535
18	94	47	-1.2886357532116
18	96	48	1.3271742666839
18	98	49	-1.3001260320889
18	100	50	0.29437607713044
18	102	51	0.72207479376812
18	104	52	0.10376351641025
18	106	53	-0.80223134346306
18	108	54	-0.092115196399391
18	110	55	1.1079443434719
18	112	56	-0.98189240845386
17	34	17	27.968599276575
17	36	18	26.965817800215
17	38	19	27.623145090257
17	40	20	27.392385699977
17	42	21	27.118754848912
17	44	22	27.401479912647
17	46	23	27.525734661803
17	48	24	26.963920110794
17	50	25	26.995766328023
17	52	26	27.387508976347
17	54	27	26.799404384875
17	56	28	27.048123564878
17	58	29	27.607723596813
17	60	30	27.409508152939
17	62	31	27.635982163208
17	64	32	27.084403453003
17	66	33	27.455089290584
17	68	34	27.026780178263
17	70	35	27.820974358199
17	72	36	27.549511619452
17	74	37	26.860664892899
17	76	38	28.176982514169
17	78	39	27.391653111861
17	80	40	26.727561302907
17	82	41	27.312526425654
17	84	42	28.055896996827
17	86	43	28.185121513279
17	88	44	27.877266518264
17	90	45	26.889272716087
17	92	46	28.11561976334
17	94	47	26.826984010129
17	96	48	28.154158276813
17	98	49	26.854032244724
17	100	50	27.148408321854
17	102	51	27.870483115622
17	104	52	27.974246632033
17	106	53	27.17201528857
17	108	54	27.07990009217
17	110	55	28.187844435642
17	112	56	27.205952027188
16	32	16	76.65
16	34	17	76.65
16	36	18	76.65
16	38	19	76.65
16	40	20	76.65
16	42	21	76.65
16	44	22	76.65
16	46	23	76.65
16	48	24	76.65
16	50	25	76.65
16	52	26	76.65
16	54	27	76.65
16	56	28	76.65
16	58	29	76.65
16	60	30	76.65
16	62	31	76.65
16	64	32	76.65
16	66	33	76.65
16	68	34	76.65
16	70	35	76.65
16	72	36	76.65
16	74	37	76.65
16	76	38	76.65
16	78	39	76.65
16	80	40	76.65
16	82	41	76.65
16	84	42	76.65
16	86	43	76.65
16	88	44	76.65
16	90	45	76.65
16	92	46	76.65
16	94	47	76.65
16	96	48	76.65
16	98	49	76.65
16	100	50	76.65
16	102	51	76.65
16	104	52	76.65
16	106	53	76.65
16	108	54	76.65
16	110	55	76.65
16	112	56	76.65
15	32	16	27.6
15	34	17	27.6
15	36	18	55.568599276575
15	38	19	82.53441707679
15	40	20	110.15756216705
15	42	21	137.54994786702
15	44	22	164.66870271594
15	46	23	192.07018262858
15	48	24	219.59591729039
15	50	25	246.55983740118
15	52	26	273.5556037292
15	54	27	300.94311270555
15	56	28	327.74251709043
15	58	29	354.79064065531
15	60	30	382.39836425212
15	62	31	409.80787240506
15	64	32	437.44385456827
15	66	33	464.52825802127
15	68	34	491.98334731185
15	70	35	519.01012749012
15	72	36	546.83110184831
15	74	37	574.38061346777
15	76	38	601.24127836067
15	78	39	629.41826087483
15	80	40	656.80991398669
15	82	41	683.5374752896
15	84	42	710.85000171526
15	86	43	738.90589871208
15	88	44	767.09102022536
15	90	45	794.96828674363
15	92	46	821.85755945971
15	94	47	849.97317922305
15	96	48	876.80016323318
15	98	49	904.95432150999
15	100	50	931.80835375472
15	102	51	958.95676207657
15	104	52	986.8272451922
15	106	53	1014.8014918242
15	108	54	1041.9735071128
15	110	55	1069.053407205
15	112	56	1097.2412516406
24	46	23	1.7198140054505
24	48	24	6.1081315522163
24	50	25	0.45128873086585
24	52	26	3.9248539072026
24	54	27	5.9903169423355
24	56	28	5.5287536501706
24	58	29	0.973
24	60	30	6.9005996942308
24	62	31	0.63551902889744
24	64	32	6.2605383721301
24	66	33	0.973
24	68	34	7.5420850485266
24	70	35	0.973
24	72	36	11.811932117491
24	74	37	0.973
24	76	38	1.7851376226039
24	78	39	10.392072964978
24	80	40	0.973
24	82	41	5.2123049142352
24	84	42	3.4408699298883
24	86	43	5.6820047546245
24	88	44	5.1921189301963
24	90	45	4.3959947610159
24	92	46	1.768243271352
24	94	47	1.4280448798813
24	96	48	3.1415135751638
24	98	49	2.7952095974108
24	100	50	4.1606699960437
24	102	51	3.9146751446848
24	104	52	4.0810504015441
24	106	53	6.0844221085587
24	108	54	3.6035393349352
24	110	55	1.3057498636085
24	112	56	4.4383015731522
24	114	57	5.9657330584892
24	116	58	0.973
24	118	59	10.822570966068
24	120	60	0.973
24	122	61	7.9080639078181
24	124	62	0.973
24	126	63	3.5748533645159
24	128	64	10.897655255216
24	130	65	0.973
24	132	66	7.0633944019931
24	134	67	1.0359624935136
23	46	23	-0.30073112924583
23	48	24	0.45402796100825
23	50	25	-0.52526372484863
23	52	26	0.090403794078156
23	54	27	0.43355912924744
23	56	28	0.3361811946379
23	58	29	-0.91208067757543
23	60	30	0.59132538351696
23	62	31	-0.49308057501912
23	64	32	0.48051058023702
23	66	33	-0.64709407940973
23	68	34	0.70043158822227
23	70	35	-0.71973387699109
23	72	36	1.3806626497535
23	74	37	-1.0407006307505
23	76	38	-0.28552295663394
23	78	39	1.1546452429611
23	80	40	-0.9290560958907
23	82	41	0.30186700634658
23	84	42	-0.0077594413887709
23	86	43	0.36559451557696
23	88	44	0.26842668454628
23	90	45	0.12743186764419
23	92	46	-0.3108863462694
23	94	47	-0.36182881006971
23	96	48	-0.061064777662978
23	98	49	-0.11798438499682
23	100	50	0.11711572401691
23	102	51	0.071345639764331
23	104	52	0.096486782887951
23	106	53	0.42147204943467
23	108	54	-0.0016296909889206
23	110	55	-0.38590885838494
23	112	56	0.15067353285849
23	114	57	0.3930231006816
23	116	58	-1.3852918519406
23	118	59	1.2296100114472
23	120	60	-0.77492023911327
23	122	61	0.73513708845712
23	124	62	-1.053137519164
23	126	63	0.031929343007505
23	128	64	1.2279159704922
23	130	65	-1.4429538315162
23	132	66	0.62813141033985
23	134	67	-0.42073313717265
22	44	22	23.648041684041
22	46	23	23.347310554796
22	48	24	23.801338515804
22	50	25	23.276074790955
22	52	26	23.366478585033
22	54	27	23.800037714281
22	56	28	24.136218908919
22	58	29	23.224138231343
22	60	30	23.81546361486
22	62	31	23.322383039841
22	64	32	23.802893620078
22	66	33	23.155799540668
22	68	34	23.856231128891
22	70	35	23.1364972519
22	72	36	24.517159901653
22	74	37	23.476459270903
22	76	38	23.190936314269
22	78	39	24.34558155723
22	80	40	23.416525461339
22	82	41	23.718392467686
22	84	42	23.710633026297
22	86	43	24.076227541874
22	88	44	24.34465422642
22	90	45	24.472086094064
22	92	46	24.161199747795
22	94	47	23.799370937725
22	96	48	23.738306160062
22	98	49	23.620321775065
22	100	50	23.737437499082
22	102	51	23.808783138847
22	104	52	23.905269921735
22	106	53	24.326741971169
22	108	54	24.32511228018
22	110	55	23.939203421795
22	112	56	24.089876954654
22	114	57	24.482900055336
22	116	58	23.097608203395
22	118	59	24.327218214842
22	120	60	23.552297975729
22	122	61	24.287435064186
22	124	62	23.234297545022
22	126	63	23.26622688803
22	128	64	24.494142858522
22	130	65	23.051189027006
22	132	66	23.679320437345
22	134	67	23.258587300173
21	42	21	76.65
21	44	22	76.65
21	46	23	76.65
21	48	24	76.65
21	50	25	76.65
21	52	26	76.65
21	54	27	76.65
21	56	28	76.65
21	58	29	76.65
21	60	30	76.65
21	62	31	76.65
21	64	32	76.65
21	66	33	76.65
21	68	34	76.65
21	70	35	76.65
21	72	36	76.65
21	74	37	76.65
21	76	38	76.65
21	78	39	76.65
21	80	40	76.65
21	82	41	76.65
21	84	42	76.65
21	86	43	76.65
21	88	44	76.65
21	90	45	76.65
21	92	46	76.65
21	94	47	76.65
21	96	48	76.65
21	98	49	76.65
21	100	50	76.65
21	102	51	76.65
21	104	52	76.65
21	106	53	76.65
21	108	54	76.65
21	110	55	76.65
21	112	56	76.65
21	114	57	76.65
21	116	58	76.65
21	118	59	76.65
21	120	60	76.65
21	122	61	76.65
21	124	62	76.65
21	126	63	76.65
21	128	64	76.65
21	130	65	76.65
21	132	66	76.65
21	134	67	76.65
20	42	21	27.6
20	44	22	27.6
20	46	23	51.248041684041
20	48	24	74.595352238837
20	50	25	98.396690754641
20	52	26	121.6727655456
20	54	27	145.03924413063
20	56	28	168.83928184491
20	58	29	192.97550075383
20	60	30	216.19963898517
20	62	31	240.01510260003
20	64	32	263.33748563987
20	66	33	287.14037925995
20	68	34	310.29617880062
20	70	35	334.15240992951
20	72	36	357.28890718141
20	74	37	381.80606708306
20	76	38	405.28252635397
20	78	39	428.47346266824
20	80	40	452.81904422547
20	82	41	476.2355696868
20	84	42	499.95396215449
20	86	43	523.66459518079
20	88	44	547.74082272266
20	90	45	572.08547694908
20	92	46	596.55756304315
20	94	47	620.71876279094
20	96	48	644.51813372867
20	98	49	668.25643988873
20	100	50	691.87676166379
20	102	51	715.61419916288
20	104	52	739.42298230172
20	106	53	763.32825222346
20	108	54	787.65499419463
20	110	55	811.98010647481
20	112	56	835.9193098966
20	114	57	860.00918685126
20	116	58	884.49208690659
20	118	59	907.58969510999
20	120	60	931.91691332483
20	122	61	955.46921130056
20	124	62	979.75664636475
20	126	63	1002.9909439098
20	128	64	1026.2571707978
20	130	65	1050.7513136563
20	132	66	1073.8025026833
20	134	67	1097.4818231207
29	56	28	5.754529403278
29	58	29	4.9858038120998
29	60	30	1.031036190352
29	62	31	3.9208490831598
29	64	32	9.9739360157494
29	66	33	2.5921328459627
29	68	34	6.3291471048379
29	70	35	0.90433458758265
29	72	36	0.973
29	74	37	3.8251670327525
29	76	38	0.973
29	78	39	0.973
29	80	40	10.723491919808
29	82	41	0.973
29	84	42	2.9964651443814
29	86	43	9.5855743886642
29	88	44	4.2052142828064
29	90	45	3.5654718380208
29	92	46	4.9885069787628
29	94	47	0.35707535518338
29	96	48	0.973
29	98	49	6.8261953131491
29	100	50	3.625631711446
29	102	51	1.4808376713012
29	104	52	6.2197532391456
29	106	53	5.7575020610435
29	108	54	7.0894573445892
29	110	55	0.41925436315491
29	112	56	3.0693164839057
29	114	57	4.8416604981196
29	116	58	0.973
29	118	59	0.973
29	120	60	7.9705421773019
29	122	61	3.1528315905267
29	124	62	9.6603757693476
29	126	63	0.973
29	128	64	8.5108164795103
29	130	65	15.816396902488
29	132	66	0.973
29	134	67	8.8682651883808
29	136	68	0.973
28	56	28	0.015538307838142
28	58	29	-0.081297066179104
28	60	30	-0.58373815915547
28	62	31	-0.19247061456554
28	64	32	0.58180507365614
28	66	33	-0.37649380008224
28	68	34	0.11503520887345
28	70	35	-0.59002997214281
28	72	36	-1.9118304577427
28	74	37	-0.12334546713602
28	76	38	-2.3645153751943
28	78	39	-2.3478525056812
28	80	40	1.1449030853525
28	82	41	-1.2651516871328
28	84	42	-0.087744115109007
28	86	43	0.98486737719742
28	88	44	0.080170896324987
28	90	45	-0.025758354605362
28	92	46	0.20301394740759
28	94	47	-0.55728823051361
28	96	48	-1.3648785438469
28	98	49	0.58616798230067
28	100	50	0.024579153426256
28	102	51	-0.3436086584303
28	104	52	0.47143043211653
28	106	53	0.37170333861988
28	108	54	0.56595166073125
28	110	55	-0.54353071284207
28	112	56	-0.086934285436797
28	114	57	0.20828438901775
28	116	58	-0.66009220300886
28	118	59	-0.59254453964029
28	120	60	0.77368398574516
28	122	61	-0.061576549318559
28	124	62	0.9941092428792
28	126	63	-2.5324777965717
28	128	64	0.91772570633769
28	130	65	1.9809862213316
28	132	66	-1.9379046894306
28	134	67	0.90962205511062
28	136	68	-1.0186255627901
27	54	27	31.846806130587
27	56	28	31.862344438425
27	58	29	31.781047372246
27	60	30	31.197309213091
27	62	31	31.004838598525
27	64	32	31.586643672181
27	66	33	31.210149872099
27	68	34	31.325185080972
27	70	35	30.73515510883
27	72	36	28.823324651087
27	74	37	28.699979183951
27	76	38	26.335463808756
27	78	39	23.987611303075
27	80	40	25.132514388428
27	82	41	23.867362701295
27	84	42	23.779618586186
27	86	43	24.764485963383
27	88	44	24.844656859708
27	90	45	24.818898505103
27	92	46	25.021912452511
27	94	47	24.464624221997
27	96	48	23.09974567815
27	98	49	23.685913660451
27	100	50	23.710492813877
27	102	51	23.366884155447
27	104	52	23.838314587563
27	106	53	24.210017926183
27	108	54	24.775969586914
27	110	55	24.232438874072
27	112	56	24.145504588635
27	114	57	24.353788977653
27	116	58	23.693696774644
27	118	59	23.101152235004
27	120	60	23.874836220749
27	122	61	23.813259671431
27	124	62	24.80736891431
27	126	63	22.274891117738
27	128	64	23.192616824076
27	130	65	25.173603045407
27	132	66	23.235698355977
27	134	67	24.145320411088
27	136	68	23.126694848297
26	52	26	76.65
26	54	27	76.65
26	56	28	76.65
26	58	29	76.65
26	60	30	76.65
26	62	31	76.65
26	64	32	76.65
26	66	33	76.65
26	68	34	76.65
26	70	35	76.65
26	72	36	76.65
26	74	37	76.65
26	76	38	76.65
26	78	39	76.65
26	80	40	76.65
26	82	41	76.65
26	84	42	76.65
26	86	43	76.65
26	88	44	76.65
26	90	45	76.65
26	92	46	76.65
26	94	47	76.65
26	96	48	76.65
26	98	49	76.65
26	100	50	76.65
26	102	51	76.65
26	104	52	76.65
26	106	53	76.65
26	108	54	76.65
26	110	55	76.65
26	112	56	76.65
26	114	57	76.65
26	116	58	76.65
26	118	59	76.65
26	120	60	76.65
26	122	61	76.65
26	124	62	76.65
26	126	63	76.65
26	128	64	76.65
26	130	65	76.65
26	132	66	76.65
26	134	67	76.65
26	136	68	76.65
25	52	26	27.6
25	54	27	27.6
25	56	28	59.446806130587
25	58	29	91.309150569012
25	60	30	123.09019794126
25	62	31	154.28750715435
25	64	32	185.29234575287
25	66	33	216.87898942505
25	68	34	248.08913929715
25	70	35	279.41432437813
25	72	36	310.14947948696
25	74	37	338.97280413804
25	76	38	367.67278332199
25	78	39	394.00824713075
25	80	40	417.99585843382
25	82	41	443.12837282225
25	84	42	466.99573552355
25	86	43	490.77535410973
25	88	44	515.53984007312
25	90	45	540.38449693283
25	92	46	565.20339543793
25	94	47	590.22530789044
25	96	48	614.68993211244
25	98	49	637.78967779059
25	100	50	661.47559145104
25	102	51	685.18608426491
25	104	52	708.55296842036
25	106	53	732.39128300792
25	108	54	756.60130093411
25	110	55	781.37727052102
25	112	56	805.60970939509
25	114	57	829.75521398373
25	116	58	854.10900296138
25	118	59	877.80269973603
25	120	60	900.90385197103
25	122	61	924.77868819178
25	124	62	948.59194786321
25	126	63	973.39931677752
25	128	64	995.67420789526
25	130	65	1018.8668247193
25	132	66	1044.0404277647
25	134	67	1067.2761261207
25	136	68	1091.4214465318
36	62	31	5.1123387829454
36	64	32	6.3075727109855
36	66	33	9.9780995468775
36	68	34	5.1156638850968
36	70	35	0.973
36	72	36	12.164447409097
36	74	37	4.3881083648431
36	76	38	8.2571738863469
36	78	39	-1.1176736140789
36	80	40	10.361889613306
36	82	41	0.973
36	84	42	8.8918917357617
36	86	43	9.338745061889
36	88	44	6.1561554430555
36	90	45	5.3282234272381
36	92	46	1.1665064172229
36	94	47	0.973
36	96	48	0.973
36	98	49	0.973
36	100	50	0.973
36	102	51	0.973
36	104	52	1.8221415398337
36	106	53	6.0448071272414
36	108	54	10.779378460317
36	110	55	2.4057145258857
36	112	56	1.7321439382649
36	114	57	0.973
36	116	58	10.639940654266
36	118	59	0.973
36	120	60	0.973
36	122	61	4.9650971119107
36	124	62	4.7639315554467
36	126	63	12.884510845863
36	128	64	0.973
36	130	65	3.3771717343146
36	132	66	14.63762666636
36	134	67	0.973
36	136	68	10.989428568155
36	138	69	0.973
35	62	31	0.0067289869766682
35	64	32	0.16412850120105
35	66	33	0.62880594399758
35	68	34	-0.024533608811907
35	70	35	-1.1266257794341
35	72	36	0.93837723357137
35	74	37	-0.11115059559233
35	76	38	0.39341069350485
35	78	39	-0.85389557224698
35	80	40	0.68671683361754
35	82	41	-1.0367776772473
35	84	42	0.51840081706177
35	86	43	0.54689060139935
35	88	44	0.11250145523809
35	90	45	0.0011910845059901
35	92	46	-0.54512605711352
35	94	47	-1.0190091428889
35	96	48	-1.18984538828
35	98	49	-2.758035364753
35	100	50	-0.65163112522188
35	102	51	-0.855841367177
35	104	52	-0.28777128273142
35	106	53	0.4320571636689
35	108	54	1.152237473554
35	110	55	-0.22280940853677
35	112	56	-0.32731506917727
35	114	57	-1.0554843164832
35	116	58	1.1656315861446
35	118	59	-0.64730842525204
35	120	60	-1.2007284752144
35	122	61	0.2852643101287
35	124	62	0.23828932875283
35	126	63	1.5229420415482
35	128	64	-1.7962289252081
35	130	65	0.0018494492942907
35	132	66	1.8128946713381
35	134	67	-2.2420563842574
35	136	68	1.2889623649071
35	138	69	-0.79657551342761
32	60	30	30.034183648501
32	62	31	30.040912635478
32	64	32	30.205041136679
32	66	33	30.833847080677
32	68	34	30.809313471865
32	70	35	29.682687692431
32	72	36	30.621064926002
32	74	37	30.50991433041
32	76	38	30.903325023915
32	78	39	30.049429451668
32	80	40	30.736146285285
32	82	41	29.699368608038
32	84	42	30.2177694251
32	86	43	30.764660026499
32	88	44	30.877161481737
32	90	45	30.878352566243
32	92	46	30.333226509129
32	94	47	29.314217366241
32	96	48	28.124371977961
32	98	49	25.366336613208
32	100	50	24.714705487986
32	102	51	23.858864120809
32	104	52	23.571092838077
32	106	53	24.003150001746
32	108	54	25.1553874753
32	110	55	24.932578066763
32	112	56	24.605262997586
32	114	57	23.549778681103
32	116	58	24.715410267248
32	118	59	24.068101841996
32	120	60	22.867373366781
32	122	61	23.15263767691
32	124	62	23.390927005663
32	126	63	24.913869047211
32	128	64	23.117640122003
32	130	65	23.119489571297
32	132	66	24.932384242635
32	134	67	22.690327858378
32	136	68	23.979290223285
32	138	69	23.182714709857
31	58	29	76.65
31	60	30	76.65
31	62	31	76.65
31	64	32	76.65
31	66	33	76.65
31	68	34	76.65
31	70	35	76.65
31	72	36	76.65
31	74	37	76.65
31	76	38	76.65
31	78	39	76.65
31	80	40	76.65
31	82	41	76.65
31	84	42	76.65
31	86	43	76.65
31	88	44	76.65
31	90	45	76.65
31	92	46	76.65
31	94	47	76.65
31	96	48	76.65
31	98	49	76.65
31	100	50	76.65
31	102	51	76.65
31	104	52	76.65
31	106	53	76.65
31	108	54	76.65
31	110	55	76.65
31	112	56	76.65
31	114	57	76.65
31	116	58	76.65
31	118	59	76.65
31	120	60	76.65
31	122	61	76.65
31	124	62	76.65
31	126	63	76.65
31	128	64	76.65
31	130	65	76.65
31	132	66	76.65
31	134	67	76.65
31	136	68	76.65
31	138	69	76.65
30	58	29	27.6
30	60	30	27.6
30	62	31	57.634183648501
30	64	32	87.675096283979
30	66	33	117.88013742066
30	68	34	148.71398450134
30	70	35	179.5232979732
30	72	36	209.20598566563
30	74	37	239.82705059163
30	76	38	270.33696492204
30	78	39	301.24028994596
30	80	40	331.28971939762
30	82	41	362.02586568291
30	84	42	391.72523429095
30	86	43	421.94300371605
30	88	44	452.70766374255
30	90	45	483.58482522428
30	92	46	514.46317779053
30	94	47	544.79640429965
30	96	48	574.1106216659
30	98	49	602.23499364386
30	100	50	627.60133025706
30	102	51	652.31603574505
30	104	52	676.17489986586
30	106	53	699.74599270394
30	108	54	723.74914270568
30	110	55	748.90453018098
30	112	56	773.83710824774
30	114	57	798.44237124533
30	116	58	821.99214992643
30	118	59	846.70756019368
30	120	60	870.77566203568
30	122	61	893.64303540246
30	124	62	916.79567307937
30	126	63	940.18660008503
30	128	64	965.10046913224
30	130	65	988.21810925424
30	132	66	1011.3375988255
30	134	67	1036.2699830682
30	136	68	1058.9603109266
30	138	69	1082.9396011498
39	66	33	2.4185105680345
39	68	34	1.9963509331687
39	70	35	9.3678626116053
39	72	36	1.64252628527
39	74	37	6.3708345175776
39	76	38	4.4093113933491
39	78	39	0.33994167354761
39	80	40	0.973
39	82	41	4.5386884043025
39	84	42	7.5438513823648
39	86	43	4.8186862534999
39	88	44	3.8221766450043
39	90	45	0.973
39	92	46	3.5519730885829
39	94	47	9.3725080437424
39	96	48	3.4458380547248
39	98	49	0.86172166417287
39	100	50	2.6352859038321
39	102	51	5.7663039524036
39	104	52	5.9728398560711
39	106	53	3.9248963131872
39	108	54	2.0325320493933
39	110	55	8.0394748911371
39	112	56	2.2939731068272
39	114	57	2.688899999901
39	116	58	6.5705817322443
39	118	59	0.73545725645167
39	120	60	5.822309539594
39	122	61	0.973
39	124	62	5.7628226299309
39	126	63	10.629036196662
39	128	64	-0.20696433096979
39	130	65	0.40328032548689
39	132	66	3.1979540236378
39	134	67	12.690894124677
39	136	68	0.973
39	138	69	7.8088436062733
39	140	70	0.973
39	142	71	1.8907190024542
39	144	72	12.679392125781
39	146	73	1.4474649428097
38	66	33	-0.24062486516777
38	68	34	-0.3013278124854
38	70	35	0.84511111630127
38	72	36	-0.37016946205404
38	74	37	0.37030611606315
38	76	38	0.05726610228885
38	78	39	-0.57725403900258
38	80	40	-0.75635330658406
38	82	41	0.12753275607247
38	84	42	0.58948977361433
38	86	43	0.14222746307496
38	88	44	-0.0175520820776
38	90	45	-0.95614769076928
38	92	46	-0.026445796480402
38	94	47	0.88366261927877
38	96	48	-0.0722905973671
38	98	49	-0.4827599383425
38	100	50	-0.18420785316266
38	102	51	0.32111263519619
38	104	52	0.33792214351706
38	106	53	0.0054913846543059
38	108	54	-0.2939576280769
38	110	55	0.65035055880435
38	112	56	-0.26159784849733
38	114	57	-0.19209125242196
38	116	58	0.41733392793685
38	118	59	-0.50856721645687
38	120	60	0.30736113677267
38	122	61	-0.865519272862
38	124	62	0.32445897452999
38	126	63	1.0438645082759
38	128	64	-0.6641727515962
38	130	65	-0.55680799728725
38	132	66	-0.089704941725358
38	134	67	1.3654193932889
38	136	68	-0.84251323901117
38	138	69	0.6082238353556
38	140	70	-0.85273347236216
38	142	71	-0.30689956073184
38	144	72	1.3661006268812
38	146	73	-0.40170821570791
37	64	32	25.888619184281
37	66	33	25.647994319113
37	68	34	25.346666506628
37	70	35	26.191777622929
37	72	36	25.821608160875
37	74	37	26.191914276938
37	76	38	26.249180379227
37	78	39	25.671926340224
37	80	40	24.91557303364
37	82	41	25.043105789713
37	84	42	25.632595563327
37	86	43	25.774823026402
37	88	44	25.757270944324
37	90	45	24.801123253555
37	92	46	24.774677457075
37	94	47	25.658340076354
37	96	48	25.586049478986
37	98	49	25.103289540644
37	100	50	24.919081687481
37	102	51	25.240194322677
37	104	52	25.578116466195
37	106	53	25.583607850849
37	108	54	25.289650222772
37	110	55	25.940000781576
37	112	56	25.678402933079
37	114	57	25.486311680657
37	116	58	25.903645608594
37	118	59	25.395078392137
37	120	60	25.70243952891
37	122	61	24.836920256048
37	124	62	25.161379230578
37	126	63	26.205243738854
37	128	64	25.541070987257
37	130	65	24.98426298997
37	132	66	24.894558048245
37	134	67	26.259977441534
37	136	68	25.417464202522
37	138	69	26.025688037878
37	140	70	25.172954565516
37	142	71	24.866055004784
37	144	72	26.232155631665
37	146	73	25.830447415957
34	62	31	76.65
34	64	32	76.65
34	66	33	76.65
34	68	34	76.65
34	70	35	76.65
34	72	36	76.65
34	74	37	76.65
34	76	38	76.65
34	78	39	76.65
34	80	40	76.65
34	82	41	76.65
34	84	42	76.65
34	86	43	76.65
34	88	44	76.65
34	90	45	76.65
34	92	46	76.65
34	94	47	76.65
34	96	48	76.65
34	98	49	76.65
34	100	50	76.65
34	102	51	76.65
34	104	52	76.65
34	106	53	76.65
34	108	54	76.65
34	110	55	76.65
34	112	56	76.65
34	114	57	76.65
34	116	58	76.65
34	118	59	76.65
34	120	60	76.65
34	122	61	76.65
34	124	62	76.65
34	126	63	76.65
34	128	64	76.65
34	130	65	76.65
34	132	66	76.65
34	134	67	76.65
34	136	68	76.65
34	138	69	76.65
34	140	70	76.65
34	142	71	76.65
34	144	72	76.65
34	146	73	76.65
33	62	31	27.6
33	64	32	27.6
33	66	33	53.488619184281
33	68	34	79.136613503394
33	70	35	104.48328001002
33	72	36	130.67505763295
33	74	37	156.49666579383
33	76	38	182.68858007076
33	78	39	208.93776044999
33	80	40	234.60968679021
33	82	41	259.52525982386
33	84	42	284.56836561357
33	86	43	310.2009611769
33	88	44	335.9757842033
33	90	45	361.73305514762
33	92	46	386.53417840118
33	94	47	411.30885585825
33	96	48	436.96719593461
33	98	49	462.55324541359
33	100	50	487.65653495424
33	102	51	512.57561664172
33	104	52	537.81581096439
33	106	53	563.39392743059
33	108	54	588.97753528144
33	110	55	614.26718550421
33	112	56	640.20718628579
33	114	57	665.88558921886
33	116	58	691.37190089952
33	118	59	717.27554650812
33	120	60	742.67062490025
33	122	61	768.37306442916
33	124	62	793.20998468521
33	126	63	818.37136391579
33	128	64	844.57660765464
33	130	65	870.1176786419
33	132	66	895.10194163187
33	134	67	919.99649968011
33	136	68	946.25647712165
33	138	69	971.67394132417
33	140	70	997.69962936205
33	142	71	1022.8725839276
33	144	72	1047.7386389323
33	146	73	1073.970794564
44	76	38	1.715606971633
44	78	39	3.9641751868708
44	80	40	2.1926121795591
44	82	41	3.8889557435303
44	84	42	0.973
44	86	43	4.0810544647437
44	88	44	0.973
44	90	45	6.0745143231546
44	92	46	6.750245674116
44	94	47	0.973
44	96	48	5.4812430677092
44	98	49	3.2149475120513
44	100	50	4.4351369909045
44	102	51	1.2604474573799
44	104	52	3.9090883604544
44	106	53	0.60128299641818
44	108	54	2.4571022026287
44	110	55	4.5531289784355
44	112	56	2.0939152438812
44	114	57	1.8846838791828
44	116	58	0.973
44	118	59	5.9378432991832
44	120	60	2.0236926484942
44	122	61	3.0270871925137
44	124	62	4.9877164408003
44	126	63	2.3643169733846
44	128	64	1.8663445570524
44	130	65	0.973
44	132	66	3.2937470393929
44	134	67	8.2213719024999
44	136	68	0.973
44	138	69	0.973
44	140	70	6.7369324231651
44	142	71	1.9995911100095
44	144	72	0.973
44	146	73	4.8054501839578
44	148	74	3.8052981686641
44	150	75	6.3046993989227
44	152	76	0.7889887449759
44	154	77	4.7210536378921
44	156	78	0.973
44	158	79	2.652358831189
44	160	80	1.8809569762421
44	162	81	6.2280948318864
44	164	82	2.1674147765497
44	166	83	3.3842863331919
44	168	84	0.973
44	170	85	7.6334352129715
44	172	86	0.973
44	174	87	5.4818138979071
44	176	88	3.6793281573317
44	178	89	2.3306894457965
43	76	38	-0.24411979608703
43	78	39	0.19699452503119
43	80	40	-0.14997472520918
43	82	41	0.1807910297066
43	84	42	-0.5320111020701
43	86	43	0.23209843668155
43	88	44	-0.92771272128448
43	90	45	0.65003760822583
43	92	46	0.73582360998262
43	94	47	-0.77397890458815
43	96	48	0.50225478142966
43	98	49	0.049769596662372
43	100	50	0.27867558365688
43	102	51	-0.33697466715239
43	104	52	0.1822192867985
43	106	53	-0.46501464222092
43	108	54	-0.088169997325167
43	110	55	0.32056398445275
43	112	56	-0.16567130433396
43	114	57	-0.20299030328169
43	116	58	-0.49461961362977
43	118	59	0.61244448891375
43	120	60	-0.17339244182222
43	122	61	0.029842851916328
43	124	62	0.40658615785651
43	126	63	-0.11312668339815
43	128	64	-0.2080962723121
43	130	65	-0.63099829747807
43	132	66	0.10082453163341
43	134	67	1.0357049996965
43	136	68	-0.73460998863447
43	138	69	-0.51730377052445
43	140	70	0.77579718595371
43	142	71	-0.17749327467754
43	144	72	-0.56482362176757
43	146	73	0.40319502982311
43	148	74	0.18952135532163
43	150	75	0.65512926341034
43	152	76	-0.42754650791176
43	154	77	0.34674246492796
43	156	78	-0.49702452833299
43	158	79	-0.046217410010286
43	160	80	-0.19843114237301
43	162	81	0.65106563642621
43	164	82	-0.15265890012961
43	166	83	0.087849970324896
43	168	84	-0.60468518757261
43	170	85	0.91180434788112
43	172	86	-0.8202100249473
43	174	87	0.50673613836989
43	176	88	0.14125759585295
43	178	89	-0.12271064019296
42	74	37	20.994857825462
42	76	38	20.750738029375
42	78	39	20.947732554406
42	80	40	20.797757829197
42	82	41	20.978548858903
42	84	42	20.446537756833
42	86	43	20.678636193515
42	88	44	19.75092347223
42	90	45	20.400961080456
42	92	46	21.136784690439
42	94	47	20.362805785851
42	96	48	20.86506056728
42	98	49	20.914830163943
42	100	50	21.1935057476
42	102	51	20.856531080447
42	104	52	21.038750367246
42	106	53	20.573735725025
42	108	54	20.4855657277
42	110	55	20.806129712152
42	112	56	20.640458407818
42	114	57	20.437468104537
42	116	58	19.942848490907
42	118	59	20.555292979821
42	120	60	20.381900537998
42	122	61	20.411743389915
42	124	62	20.818329547771
42	126	63	20.705202864373
42	128	64	20.497106592061
42	130	65	19.866108294583
42	132	66	19.966932826216
42	134	67	21.002637825913
42	136	68	20.268027837278
42	138	69	19.750724066754
42	140	70	20.526521252708
42	142	71	20.34902797803
42	144	72	19.784204356262
42	146	73	20.187399386086
42	148	74	20.376920741407
42	150	75	21.032050004818
42	152	76	20.604503496906
42	154	77	20.951245961834
42	156	78	20.454221433501
42	158	79	20.40800402349
42	160	80	20.209572881117
42	162	81	20.860638517544
42	164	82	20.707979617414
42	166	83	20.795829587739
42	168	84	20.191144400166
42	170	85	21.102948748047
42	172	86	20.2827387231
42	174	87	20.78947486147
42	176	88	20.930732457323
42	178	89	20.80802181713
41	72	36	76.65
41	74	37	76.65
41	76	38	76.65
41	78	39	76.65
41	80	40	76.65
41	82	41	76.65
41	84	42	76.65
41	86	43	76.65
41	88	44	76.65
41	90	45	76.65
41	92	46	76.65
41	94	47	76.65
41	96	48	76.65
41	98	49	76.65
41	100	50	76.65
41	102	51	76.65
41	104	52	76.65
41	106	53	76.65
41	108	54	76.65
41	110	55	76.65
41	112	56	76.65
41	114	57	76.65
41	116	58	76.65
41	118	59	76.65
41	120	60	76.65
41	122	61	76.65
41	124	62	76.65
41	126	63	76.65
41	128	64	76.65
41	130	65	76.65
41	132	66	76.65
41	134	67	76.65
41	136	68	76.65
41	138	69	76.65
41	140	70	76.65
41	142	71	76.65
41	144	72	76.65
41	146	73	76.65
41	148	74	76.65
41	150	75	76.65
41	152	76	76.65
41	154	77	76.65
41	156	78	76.65
41	158	79	76.65
41	160	80	76.65
41	162	81	76.65
41	164	82	76.65
41	166	83	76.65
41	168	84	76.65
41	170	85	76.65
41	172	86	76.65
41	174	87	76.65
41	176	88	76.65
41	178	89	76.65
40	72	36	27.6
40	74	37	27.6
40	76	38	48.594857825462
40	78	39	69.345595854837
40	80	40	90.293328409242
40	82	41	111.09108623844
40	84	42	132.06963509734
40	86	43	152.51617285418
40	88	44	173.19480904769
40	90	45	192.94573251992
40	92	46	213.34669360038
40	94	47	234.48347829082
40	96	48	254.84628407667
40	98	49	275.71134464395
40	100	50	296.62617480789
40	102	51	317.81968055549
40	104	52	338.67621163594
40	106	53	359.71496200318
40	108	54	380.28869772821
40	110	55	400.77426345591
40	112	56	421.58039316806
40	114	57	442.22085157588
40	116	58	462.65831968041
40	118	59	482.60116817132
40	120	60	503.15646115114
40	122	61	523.53836168914
40	124	62	543.95010507905
40	126	63	564.76843462683
40	128	64	585.4736374912
40	130	65	605.97074408326
40	132	66	625.83685237784
40	134	67	645.80378520406
40	136	68	666.80642302997
40	138	69	687.07445086725
40	140	70	706.825174934
40	142	71	727.35169618671
40	144	72	747.70072416474
40	146	73	767.484928521
40	148	74	787.67232790709
40	150	75	808.0492486485
40	152	76	829.08129865331
40	154	77	849.68580215022
40	156	78	870.63704811205
40	158	79	891.09126954555
40	160	80	911.49927356905
40	162	81	931.70884645016
40	164	82	952.56948496771
40	166	83	973.27746458512
40	168	84	994.07329417286
40	170	85	1014.264438573
40	172	86	1035.3673873211
40	174	87	1055.6501260442
40	176	88	1076.4396009056
40	178	89	1097.370333363
49	86	43	1.6278364924147
49	88	44	11.896075034937
49	90	45	0.44246829730296
49	92	46	0.12540625415353
49	94	47	3.6141252770031
49	96	48	13.296290306367
49	98	49	0.973
49	100	50	0.973
49	102	51	0.973
49	104	52	0.973
49	106	53	6.0604973640909
49	108	54	0.973
49	110	55	7.8686254146913
49	112	56	2.3042801013605
49	114	57	0.973
49	116	58	0.973
49	118	59	6.296932361767
49	120	60	0.973
49	122	61	9.5070353744363
49	124	62	0.973
49	126	63	5.7672991318172
49	128	64	3.367858972775
49	130	65	6.3715948655243
49	132	66	0.973
49	134	67	5.9373644381621
49	136	68	4.0921152521839
49	138	69	0.973
49	140	70	4.9659058024131
49	142	71	2.6730739156243
49	144	72	3.1133408355744
49	146	73	1.3360588952599
49	148	74	9.2972282811537
49	150	75	0.973
49	152	76	7.5928821592595
49	154	77	0.68153592812318
49	156	78	8.0360096457673
49	158	79	0.973
49	160	80	4.7990594693344
49	162	81	7.0280524227358
49	164	82	2.6513773567305
49	166	83	0.973
49	168	84	6.6903094895777
49	170	85	0.51434892308576
49	172	86	5.1416305323245
49	174	87	0.973
49	176	88	4.699503247946
49	178	89	2.8491309531024
49	180	90	6.8096248529658
48	86	43	-0.42849456577096
48	88	44	1.0061981094768
48	90	45	-0.61024337913841
48	92	46	-0.64558624173515
48	94	47	-0.12315748434048
48	96	48	1.2183804893866
48	98	49	-1.1381328032575
48	100	50	-2.3683732779297
48	102	51	-1.289146866677
48	104	52	-1.9068802347358
48	106	53	0.49978510227067
48	108	54	-1.9840707346594
48	110	55	0.90759127826694
48	112	56	-0.149696726656
48	114	57	-0.8539383639668
48	116	58	-0.88720989262797
48	118	59	0.68539023208823
48	120	60	-0.4800945267676
48	122	61	1.2591668160624
48	124	62	-1.3058876668885
48	126	63	0.5754526314891
48	128	64	0.088718962295729
48	130	65	0.64870074478214
48	132	66	-1.7124299808669
48	134	67	0.63158083912556
48	136	68	0.24252565396399
48	138	69	-0.85058179556449
48	140	70	0.44167338148343
48	142	71	-0.030976477663494
48	144	72	0.058020023821552
48	146	73	-0.30326061632536
48	148	74	1.2434388503848
48	150	75	-0.89671178825999
48	152	76	0.90677634626405
48	154	77	-0.44931005989349
48	156	78	0.95390229093898
48	158	79	-1.8419239048904
48	160	80	0.40482304885905
48	162	81	0.80468877967861
48	164	82	-0.060844455158378
48	166	83	-0.51361591264887
48	168	84	0.72727708832328
48	170	85	-0.48287548264821
48	172	86	0.42565545513229
48	174	87	-0.95091744168396
48	176	88	0.36789061548521
48	178	89	-0.0073283149761068
48	180	90	0.74408045358225
47	84	42	28.616005132396
47	86	43	28.187510566625
47	88	44	29.193708676102
47	90	45	28.583465296963
47	92	46	27.937879055228
47	94	47	27.814721570888
47	96	48	29.033102060274
47	98	49	27.894969257017
47	100	50	25.526595979087
47	102	51	24.23744911241
47	104	52	22.330568877674
47	106	53	22.830353979945
47	108	54	20.846283245286
47	110	55	21.753874523552
47	112	56	21.604177796896
47	114	57	20.75023943293
47	116	58	19.863029540302
47	118	59	20.54841977239
47	120	60	20.068325245622
47	122	61	21.327492061685
47	124	62	20.021604394796
47	126	63	20.597057026285
47	128	64	20.685775988581
47	130	65	21.334476733363
47	132	66	19.622046752496
47	134	67	20.253627591622
47	136	68	20.496153245586
47	138	69	19.645571450021
47	140	70	20.087244831505
47	142	71	20.056268353841
47	144	72	20.114288377663
47	146	73	19.811027761337
47	148	74	21.054466611722
47	150	75	20.157754823462
47	152	76	21.064531169726
47	154	77	20.615221109833
47	156	78	21.569123400772
47	158	79	19.727199495881
47	160	80	20.13202254474
47	162	81	20.936711324419
47	164	82	20.875866869261
47	166	83	20.362250956612
47	168	84	21.089528044935
47	170	85	20.606652562287
47	172	86	21.032308017419
47	174	87	20.081390575735
47	176	88	20.44928119122
47	178	89	20.441952876244
47	180	90	21.186033329827
46	82	41	76.65
46	84	42	76.65
46	86	43	76.65
46	88	44	76.65
46	90	45	76.65
46	92	46	76.65
46	94	47	76.65
46	96	48	76.65
46	98	49	76.65
46	100	50	76.65
46	102	51	76.65
46	104	52	76.65
46	106	53	76.65
46	108	54	76.65
46	110	55	76.65
46	112	56	76.65
46	114	57	76.65
46	116	58	76.65
46	118	59	76.65
46	120	60	76.65
46	122	61	76.65
46	124	62	76.65
46	126	63	76.65
46	128	64	76.65
46	130	65	76.65
46	132	66	76.65
46	134	67	76.65
46	136	68	76.65
46	138	69	76.65
46	140	70	76.65
46	142	71	76.65
46	144	72	76.65
46	146	73	76.65
46	148	74	76.65
46	150	75	76.65
46	152	76	76.65
46	154	77	76.65
46	156	78	76.65
46	158	79	76.65
46	160	80	76.65
46	162	81	76.65
46	164	82	76.65
46	166	83	76.65
46	168	84	76.65
46	170	85	76.65
46	172	86	76.65
46	174	87	76.65
46	176	88	76.65
46	178	89	76.65
46	180	90	76.65
45	82	41	27.6
45	84	42	27.6
45	86	43	56.216005132396
45	88	44	84.403515699021
45	90	45	113.59722437512
45	92	46	142.18068967209
45	94	47	170.11856872731
45	96	48	197.9332902982
45	98	49	226.96639235848
45	100	50	254.86136161549
45	102	51	280.38795759458
45	104	52	304.62540670699
45	106	53	326.95597558466
45	108	54	349.78632956461
45	110	55	370.63261280989
45	112	56	392.38648733345
45	114	57	413.99066513034
45	116	58	434.74090456327
45	118	59	454.60393410358
45	120	60	475.15235387596
45	122	61	495.22067912159
45	124	62	516.54817118327
45	126	63	536.56977557807
45	128	64	557.16683260435
45	130	65	577.85260859293
45	132	66	599.1870853263
45	134	67	618.80913207879
45	136	68	639.06275967042
45	138	69	659.558912916
45	140	70	679.20448436602
45	142	71	699.29172919753
45	144	72	719.34799755137
45	146	73	739.46228592903
45	148	74	759.27331369037
45	150	75	780.32778030209
45	152	76	800.48553512555
45	154	77	821.55006629528
45	156	78	842.16528740511
45	158	79	863.73441080588
45	160	80	883.46161030177
45	162	81	903.59363284651
45	164	82	924.53034417093
45	166	83	945.40621104019
45	168	84	965.7684619968
45	170	85	986.85799004173
45	172	86	1007.464642604
45	174	87	1028.4969506214
45	176	88	1048.5783411972
45	178	89	1069.0276223884
45	180	90	1089.4695752646
54	96	48	10.860524304644
54	98	49	2.5509322286783
54	100	50	6.2294661590769
54	102	51	10.825010157373
54	104	52	5.4448461535203
54	106	53	11.805903522307
54	108	54	0.85862019132574
54	110	55	0.973
54	112	56	-0.50936471830885
54	114	57	0.973
54	116	58	0.973
54	118	59	0.973
54	120	60	11.261104442418
54	122	61	0.973
54	124	62	11.247642738832
54	126	63	0.973
54	128	64	7.0410157141428
54	130	65	2.0621608013266
54	132	66	4.5301866519526
54	134	67	0.973
54	136	68	4.8262732798676
54	138	69	0.973
54	140	70	0.973
54	142	71	4.0232499603901
54	144	72	5.5719938417195
54	146	73	5.6666917402485
54	148	74	0.973
54	150	75	9.7858810404109
54	152	76	2.2822299110304
54	154	77	6.0308773768272
54	156	78	0.973
54	158	79	12.561083891109
54	160	80	0.973
54	162	81	9.368146796191
54	164	82	3.8774101693258
54	166	83	4.4752005587282
54	168	84	0.7686020867362
54	170	85	7.5644474253383
54	172	86	0.973
54	174	87	10.477799760134
54	176	88	0.973
54	178	89	8.3942445975197
54	180	90	2.6461773508616
54	182	91	6.5809001630776
53	96	48	0.51031396212056
53	98	49	-0.47142262884881
53	100	50	-0.023146118503064
53	102	51	0.50540274102241
53	104	52	-0.13405056972988
53	106	53	0.59390446229372
53	108	54	-0.68373560055625
53	110	55	-2.3543271655845
53	112	56	-0.78938800833433
53	114	57	-3.1193288425179
53	116	58	-3.4839482111365
53	118	59	-2.6519793095516
53	120	60	1.3919546617827
53	122	61	-2.7275611544616
53	124	62	1.5097011507796
53	126	63	-2.0003691654681
53	128	64	0.8051386133128
53	130	65	-0.17581368033228
53	132	66	0.30213285979248
53	134	67	-0.77481094963451
53	136	68	0.38061791945359
53	138	69	-0.51280762952523
53	140	70	-0.53497036770765
53	142	71	0.25522404200809
53	144	72	0.54485395466563
53	146	73	0.53216761232434
53	148	74	-1.8580262706113
53	150	75	1.3930272922332
53	152	76	-0.12115890116322
53	154	77	0.60312680149369
53	156	78	-0.78900472745974
53	158	79	1.7756526480927
53	160	80	-2.6895115459937
53	162	81	1.3008083172597
53	164	82	0.18673127877916
53	166	83	0.29207713998958
53	168	84	-0.43214824440043
53	170	85	0.86744722150053
53	172	86	-1.2219767554041
53	174	87	1.4105735590087
53	176	88	-2.4138613491405
53	178	89	1.1212558025903
53	180	90	-0.046039147213186
53	182	91	0.70714429216982
52	94	47	34.088935972867
52	96	48	34.599249934987
52	98	49	34.127827306138
52	100	50	34.104681187635
52	102	51	34.610083928658
52	104	52	34.476033358928
52	106	53	35.069937821222
52	108	54	34.386202220665
52	110	55	32.031875055081
52	112	56	31.242487046746
52	114	57	28.123158204229
52	116	58	24.639209993092
52	118	59	21.98723068354
52	120	60	23.379185345323
52	122	61	20.651624190862
52	124	62	22.161325341641
52	126	63	20.160956176173
52	128	64	20.966094789486
52	130	65	20.790281109154
52	132	66	21.092413968946
52	134	67	20.317603019312
52	136	68	20.698220938765
52	138	69	20.18541330924
52	140	70	19.650442941532
52	142	71	19.90566698354
52	144	72	20.450520938206
52	146	73	20.98268855053
52	148	74	19.124662279919
52	150	75	20.517689572152
52	152	76	20.396530670989
52	154	77	20.999657472483
52	156	78	20.210652745023
52	158	79	21.986305393116
52	160	80	19.296793847122
52	162	81	20.597602164382
52	164	82	20.784333443161
52	166	83	21.07641058315
52	168	84	20.64426233875
52	170	85	21.51170956025
52	172	86	20.289732804846
52	174	87	21.700306363855
52	176	88	19.286445014715
52	178	89	20.407700817305
52	180	90	20.361661670092
52	182	91	21.068805962262
51	92	46	76.65
51	94	47	76.65
51	96	48	76.65
51	98	49	76.65
51	100	50	76.65
51	102	51	76.65
51	104	52	76.65
51	106	53	76.65
51	108	54	76.65
51	110	55	76.65
51	112	56	76.65
51	114	57	76.65
51	116	58	76.65
51	118	59	76.65
51	120	60	76.65
51	122	61	76.65
51	124	62	76.65
51	126	63	76.65
51	128	64	76.65
51	130	65	76.65
51	132	66	76.65
51	134	67	76.65
51	136	68	76.65
51	138	69	76.65
51	140	70	76.65
51	142	71	76.65
51	144	72	76.65
51	146	73	76.65
51	148	74	76.65
51	150	75	76.65
51	152	76	76.65
51	154	77	76.65
51	156	78	76.65
51	158	79	76.65
51	160	80	76.65
51	162	81	76.65
51	164	82	76.65
51	166	83	76.65
51	168	84	76.65
51	170	85	76.65
51	172	86	76.65
51	174	87	76.65
51	176	88	76.65
51	178	89	76.65
51	180	90	76.65
51	182	91	76.65
50	92	46	27.6
50	94	47	27.6
50	96	48	61.688935972867
50	98	49	96.288185907854
50	100	50	130.41601321399
50	102	51	164.52069440163
50	104	52	199.13077833029
50	106	53	233.60681168921
50	108	54	268.67674951043
50	110	55	303.0629517311
50	112	56	335.09482678618
50	114	57	366.33731383293
50	116	58	394.46047203716
50	118	59	419.09968203025
50	120	60	441.08691271379
50	122	61	464.46609805911
50	124	62	485.11772224997
50	126	63	507.27904759161
50	128	64	527.44000376779
50	130	65	548.40609855727
50	132	66	569.19637966643
50	134	67	590.28879363537
50	136	68	610.60639665468
50	138	69	631.30461759345
50	140	70	651.49003090269
50	142	71	671.14047384422
50	144	72	691.04614082776
50	146	73	711.49666176597
50	148	74	732.4793503165
50	150	75	751.60401259642
50	152	76	772.12170216857
50	154	77	792.51823283956
50	156	78	813.51789031204
50	158	79	833.72854305706
50	160	80	855.71484845018
50	162	81	875.0116422973
50	164	82	895.60924446168
50	166	83	916.39357790484
50	168	84	937.46998848799
50	170	85	958.11425082674
50	172	86	979.62596038699
50	174	87	999.91569319184
50	176	88	1021.6159995557
50	178	89	1040.9024445704
50	180	90	1061.3101453877
50	182	91	1081.6718070578

