version 2
run General-78-20200211-12:45:13-39082
attr configname General
attr datetime 20200211-12:45:13
attr experiment General
attr inifile omnetpp.ini
attr iterationvars $0=78
attr iterationvarsf 78-
attr measurement $0=78
attr network scenario
attr processid 39082
attr repetition 0
attr replication #0
attr resultdir veins-runall-output
attr runnumber 78
attr seedset 78
param *.playgroundSizeX 10672m
param *.playgroundSizeY 7105m
param *.playgroundSizeZ 10000m
param *.annotations.draw false
param *.world.useTorus false
param *.world.use2D false
param *.manager.updateInterval 1s
param *.manager.host "\"localhost\""
param *.manager.port 9999
param *.manager.moduleType "\"org.car2x.veins.nodes.Car\""
param *.manager.moduleName "\"node\""
param *.manager.moduleDisplayString "\"\""
param *.manager.autoShutdown true
param *.manager.margin 25
param *.manager.launchConfig "xmldoc(\"sumo-launchd.launch.xml\")"
param *.manager.trafficLightModuleType "\"org.car2x.veins.nodes.TrafficLight\""
param *.manager.trafficLightModuleName "\"trafficLight\""
param *.manager.trafficLightModuleDisplayString default
param *.manager.trafficLightFilter "\"10\""
param *.manager.ignoreGuiCommands true
param *.trafficLight[*].mobility.x 0
param *.trafficLight[*].mobility.y 0
param *.trafficLight[*].mobility.z 3
param *.trafficLight[*].applType "\"org.car2x.veins.subprojects.veins_testsims.traci.TraCITrafficLightApp\""
param *.trafficLight[*].logicType "\"org.car2x.veins.subprojects.veins_testsims.traci.TraCITrafficLightTestLogic\""
param *.trafficLight[*].appl.headerLength "80 bit"
param *.trafficLight[*].appl.sendBeacons false
param *.trafficLight[*].appl.dataOnSch true
param *.connectionManager.sendDirect true
param *.connectionManager.maxInterfDist 2600m
param *.connectionManager.drawMaxIntfDist false
param *.**.nic.mac1609_4.useServiceChannel false
param *.**.nic.mac1609_4.txPower 20mW
param *.**.nic.mac1609_4.bitrate 18Mbps
param *.**.nic.phy80211p.minPowerLevel -110dBm
param *.**.nic.phy80211p.useNoiseFloor true
param *.**.nic.phy80211p.noiseFloor -98dBm
param *.**.nic.phy80211p.decider "xmldoc(\"config.xml\")"
param *.**.nic.phy80211p.analogueModels "xmldoc(\"config.xml\")"
param *.**.nic.phy80211p.usePropagationDelay true
param *.node[*].applType "\"org.car2x.veins.subprojects.veins_testsims.traci.TraCITestApp\""
param *.node[0].appl.testNumber 78
param *.node[*].appl.testNumber -1
param *.node[*].veinsmobilityType "\"org.car2x.veins.modules.mobility.traci.TraCIMobility\""
param *.node[*].veinsmobility.x 0
param *.node[*].veinsmobility.y 0
param *.node[*].veinsmobility.z 1.895
param *.node[*].veinsmobility.accidentCount 0
param *.node[*].veinsmobility.setHostSpeed true

vector 0 scenario.node[0].veinsmobility posx ETV
vector 1 scenario.node[0].veinsmobility posy ETV
vector 2 scenario.node[0].veinsmobility speed ETV
vector 3 scenario.node[0].veinsmobility acceleration ETV
vector 4 scenario.node[0].veinsmobility co2emission ETV
vector 5 scenario.node[1].veinsmobility posx ETV
vector 6 scenario.node[1].veinsmobility posy ETV
vector 7 scenario.node[1].veinsmobility speed ETV
vector 8 scenario.node[1].veinsmobility acceleration ETV
vector 9 scenario.node[1].veinsmobility co2emission ETV
vector 10 scenario.node[2].veinsmobility posx ETV
vector 11 scenario.node[2].veinsmobility posy ETV
vector 12 scenario.node[2].veinsmobility speed ETV
vector 13 scenario.node[2].veinsmobility acceleration ETV
vector 14 scenario.node[2].veinsmobility co2emission ETV
vector 15 scenario.node[3].veinsmobility posx ETV
vector 16 scenario.node[3].veinsmobility posy ETV
vector 17 scenario.node[3].veinsmobility speed ETV
vector 18 scenario.node[3].veinsmobility acceleration ETV
vector 19 scenario.node[3].veinsmobility co2emission ETV
vector 20 scenario.node[4].veinsmobility posx ETV
vector 21 scenario.node[4].veinsmobility posy ETV
vector 22 scenario.node[4].veinsmobility speed ETV
vector 23 scenario.node[4].veinsmobility acceleration ETV
vector 24 scenario.node[4].veinsmobility co2emission ETV
vector 25 scenario.node[5].veinsmobility posx ETV
vector 26 scenario.node[5].veinsmobility posy ETV
vector 27 scenario.node[5].veinsmobility speed ETV
vector 28 scenario.node[5].veinsmobility acceleration ETV
vector 29 scenario.node[5].veinsmobility co2emission ETV
vector 30 scenario.node[6].veinsmobility posx ETV
vector 31 scenario.node[6].veinsmobility posy ETV
vector 32 scenario.node[6].veinsmobility speed ETV
vector 33 scenario.node[6].veinsmobility acceleration ETV
vector 34 scenario.node[6].veinsmobility co2emission ETV
vector 35 scenario.node[7].veinsmobility posx ETV
vector 36 scenario.node[7].veinsmobility posy ETV
vector 37 scenario.node[7].veinsmobility speed ETV
vector 38 scenario.node[7].veinsmobility acceleration ETV
vector 39 scenario.node[7].veinsmobility co2emission ETV
vector 40 scenario.node[8].veinsmobility posx ETV
vector 41 scenario.node[8].veinsmobility posy ETV
vector 42 scenario.node[8].veinsmobility speed ETV
vector 43 scenario.node[8].veinsmobility acceleration ETV
vector 44 scenario.node[8].veinsmobility co2emission ETV
vector 45 scenario.node[9].veinsmobility posx ETV
vector 46 scenario.node[9].veinsmobility posy ETV
vector 47 scenario.node[9].veinsmobility speed ETV
vector 48 scenario.node[9].veinsmobility acceleration ETV
vector 49 scenario.node[9].veinsmobility co2emission ETV
4	9	3	9.0549579066719
4	12	4	8.4988778463559
4	15	5	0.046631045706452
4	18	6	1.346729538445
4	21	7	6.8698411864162
4	24	8	6.3845112230278
4	27	9	10.609141425341
4	30	10	0.973
4	33	11	0.973
4	36	12	0.973
4	40	13	0.973
4	47	14	0.973
4	50	15	1.1125999802452
4	53	16	1.1102770048266
4	56	17	1.1101034902093
4	59	18	1.1100235718259
4	62	19	1.110008687699
4	65	20	1.1100054551432
4	68	21	0.973
4	71	22	0.973
4	75	23	0.973
4	82	24	2.9703690874102
4	85	25	3.3451039747015
4	88	26	5.8342069761389
4	91	27	7.5668536476318
4	94	28	6.8784184514884
4	97	29	11.351232596245
4	100	30	12.465353270184
4	103	31	11.633602717038
4	106	32	12.215501627828
4	110	33	15.114944228698
4	117	34	16.754666519515
4	120	35	19.145398550217
4	123	36	26.694536482914
4	126	37	0.51701345174772
4	129	38	9.8884395917878
4	132	39	10.69111669374
4	135	40	5.7588323747773
4	138	41	0.973
4	141	42	4.3465146531251
4	145	43	11.995564277744
4	152	44	8.95962128717
4	155	45	1.291939627666
4	158	46	3.6257707714849
4	161	47	9.1575941603104
4	164	48	1.9506600438733
4	167	49	1.8459858356143
4	170	50	10.07131871608
4	173	51	6.117858727332
4	176	52	4.0683323653584
4	180	53	2.9720182905125
4	187	54	3.6807649007901
4	190	55	11.740415573078
3	9	3	0.52293095912319
3	12	4	0.42359790159389
3	15	5	-0.69673392002005
3	18	6	-0.50619142258074
3	21	7	0.25186112383381
3	24	8	0.1763841798529
3	27	9	0.71072384552099
3	30	10	-5.6023233765891
3	33	11	-8.7788477902673
3	36	12	-9.81
3	40	13	-6.139514273573
3	47	14	-0.47616286351489
3	50	15	-0.014920677083299
3	53	16	-0.050554934459723
3	56	17	-0.0054769005162709
3	59	18	-0.0017128166504999
3	62	19	-0.00031247901913949
3	65	20	-6.7253439112011e-05
3	68	21	-0.00011312140764459
3	71	22	0
3	75	23	0
3	82	24	2.6787696902175
3	85	25	1.8430190352956
3	88	26	2.5518582622753
3	91	27	2.5486900090473
3	94	28	1.8380230438197
3	97	29	2.7195812815335
3	100	30	2.515225986368
3	103	31	2.0013756500557
3	106	32	1.8773579627741
3	110	33	2.1581405979814
3	117	34	2.1690884674899
3	120	35	2.2709616017528
3	123	36	2.9731202566763
3	126	37	-0.6176981666658
3	129	38	0.65732041408774
3	132	39	0.72010953607969
3	135	40	0.055455254623666
3	138	41	-1.288658154197
3	141	42	-0.081923894234933
3	145	43	0.92324440763332
3	152	44	0.48240846942645
3	155	45	-0.53113030199893
3	158	46	-0.20612035389058
3	161	47	0.52156763069797
3	164	48	-0.43808835558593
3	167	49	-0.44074191909749
3	170	50	0.65862785512581
3	173	51	0.11651006375905
3	176	52	-0.15504761959892
3	180	53	-0.29476078238804
3	187	54	-0.19081634504255
3	190	55	0.86154521314893
2	4	2	29.997433819196
2	9	3	30.520364778319
2	12	4	30.943962679913
2	15	5	30.247228759893
2	18	6	29.741037337312
2	21	7	29.992898461146
2	24	8	30.169282640999
2	27	9	30.88000648652
2	30	10	25.277683109931
2	33	11	16.498835319664
2	36	12	6.6888353196636
2	40	13	0.54932104609058
2	47	14	0.073158182575689
2	50	15	0.05823750549239
2	53	16	0.0076825710326669
2	56	17	0.002205670516396
2	59	18	0.00049285386589609
2	62	19	0.0001803748467566
2	65	20	0.00011312140764459
2	68	21	0
2	71	22	0
2	75	23	0
2	82	24	2.6787696902175
2	85	25	4.521788725513
2	88	26	7.0736469877884
2	91	27	9.6223369968357
2	94	28	11.460360040655
2	97	29	14.179941322189
2	100	30	16.695167308557
2	103	31	18.696542958613
2	106	32	20.573900921387
2	110	33	22.732041519368
2	117	34	24.901129986858
2	120	35	27.172091588611
2	123	36	30.145211845287
2	126	37	29.527513678621
2	129	38	30.184834092709
2	132	39	30.904943628789
2	135	40	30.960398883412
2	138	41	29.671740729215
2	141	42	29.58981683498
2	145	43	30.513061242614
2	152	44	30.99546971204
2	155	45	30.464339410041
2	158	46	30.258219056151
2	161	47	30.779786686849
2	164	48	30.341698331263
2	167	49	29.900956412165
2	170	50	30.559584267291
2	173	51	30.67609433105
2	176	52	30.521046711451
2	180	53	30.226285929063
2	187	54	30.035469584021
2	190	55	30.89701479717
1	2	1	76.65
1	4	2	76.65
1	9	3	76.65
1	12	4	76.65
1	15	5	76.65
1	18	6	76.65
1	21	7	76.65
1	24	8	76.65
1	27	9	76.65
1	30	10	76.65
1	33	11	76.65
1	36	12	76.65
1	40	13	76.65
1	47	14	76.65
1	50	15	76.65
1	53	16	76.65
1	56	17	76.65
1	59	18	76.65
1	62	19	76.65
1	65	20	76.65
1	68	21	76.65
1	71	22	76.65
1	75	23	76.65
1	82	24	76.65
1	85	25	76.65
1	88	26	76.65
1	91	27	76.65
1	94	28	76.65
1	97	29	76.65
1	100	30	76.65
1	103	31	76.65
1	106	32	76.65
1	110	33	76.65
1	117	34	76.65
1	120	35	76.65
1	123	36	76.65
1	126	37	76.65
1	129	38	76.65
1	132	39	76.65
1	135	40	76.65
1	138	41	76.65
1	141	42	76.65
1	145	43	76.65
1	152	44	76.65
1	155	45	76.65
1	158	46	76.65
1	161	47	76.65
1	164	48	76.65
1	167	49	76.65
1	170	50	76.65
1	173	51	76.65
1	176	52	76.65
1	180	53	76.65
1	187	54	76.65
1	190	55	76.65
0	2	1	27.6
0	4	2	27.6
0	9	3	57.597433819196
0	12	4	88.117798597515
0	15	5	119.06176127743
0	18	6	149.30899003732
0	21	7	179.05002737463
0	24	8	209.04292583578
0	27	9	239.21220847678
0	30	10	270.0922149633
0	33	11	295.36989807323
0	36	12	311.86873339289
0	40	13	318.55756871256
0	47	14	319.10688975865
0	50	15	319.18004794122
0	53	16	319.23828544672
0	56	17	319.24596801775
0	59	18	319.24817368826
0	62	19	319.24866654213
0	65	20	319.24884691698
0	68	21	319.24896003838
0	71	22	319.24896003838
0	75	23	319.24896003838
0	82	24	319.24896003838
0	85	25	321.9277297286
0	88	26	326.44951845412
0	91	27	333.5231654419
0	94	28	343.14550243874
0	97	29	354.60586247939
0	100	30	368.78580380158
0	103	31	385.48097111014
0	106	32	404.17751406875
0	110	33	424.75141499014
0	117	34	447.48345650951
0	120	35	472.38458649637
0	123	36	499.55667808498
0	126	37	529.70188993026
0	129	38	559.22940360888
0	132	39	589.41423770159
0	135	40	620.31918133038
0	138	41	651.2795802138
0	141	42	680.95132094301
0	145	43	710.54113777799
0	152	44	741.0541990206
0	155	45	772.04966873264
0	158	46	802.51400814269
0	161	47	832.77222719884
0	164	48	863.55201388569
0	167	49	893.89371221695
0	170	50	923.79466862911
0	173	51	954.3542528964
0	176	52	985.03034722745
0	180	53	1015.5513939389
0	187	54	1045.777679868
0	190	55	1075.813149452
9	24	8	0.973
9	27	9	7.571291812718
9	30	10	5.5542453148332
9	33	11	1.4446197809318
9	36	12	8.6315642222256
9	40	13	9.2060826741665
9	47	14	0.973
9	50	15	4.7769539228436
9	53	16	0.973
9	56	17	0.973
9	59	18	0.973
9	62	19	0.973
9	65	20	0.973
9	68	21	1.1117863443988
9	71	22	1.1100415101447
9	75	23	1.1100270256483
9	82	24	1.1100109537228
9	85	25	2.5434175497411
9	88	26	4.0367216088346
9	91	27	5.7972982886162
9	94	28	5.2952321524139
9	97	29	6.4705554868615
9	100	30	8.2476712685013
9	103	31	8.791013831514
9	106	32	12.285570635696
9	110	33	9.8348332294711
9	117	34	17.227027757376
9	120	35	17.329683680826
9	123	36	23.056337128623
9	126	37	20.522187367255
9	129	38	0.973
9	132	39	5.6582246857653
9	135	40	3.1250608557362
9	138	41	10.368813933513
9	141	42	1.9989744120531
9	145	43	8.1758242816904
9	152	44	0.973
9	155	45	12.96885926761
9	158	46	-0.10283645381016
9	161	47	4.6251791918359
9	164	48	9.9320444496715
9	167	49	0.973
9	170	50	4.293712094635
9	173	51	11.022284358618
9	176	52	1.8064529814015
9	180	53	9.7920455313975
9	187	54	-0.49542952425149
9	190	55	7.175801898232
9	193	56	3.3041774110164
9	196	57	4.6512048607523
9	199	58	-0.045478732054493
8	24	8	-0.89912858465686
8	27	9	0.44805449608248
8	30	10	0.14435671095271
8	33	11	-0.4477252420038
8	36	12	0.58708500838839
8	40	13	0.63133426685818
8	47	14	-1.0425417660736
8	50	15	0.039854969247244
8	53	16	-8.6737422162491
8	56	17	-9.3978515568522
8	59	18	-7.726532620384
8	62	19	-1.7064166429838
8	65	20	-0.45495352506394
8	68	21	-0.058518836392356
8	71	22	-0.051172329279197
8	75	23	-0.00059412993504426
8	82	24	-0.00033445374105306
8	85	25	2.3396544899122
8	88	26	2.3698420776072
8	91	27	2.4837507896209
8	94	28	1.7181052198866
8	97	29	1.826954251912
8	100	30	2.0525514733745
8	103	31	1.8883902603993
8	106	32	2.4026190672303
8	110	33	1.6034650515066
8	117	34	2.7444516011747
8	120	35	2.4056281558005
8	123	36	2.9278098356444
8	126	37	2.2530537805154
8	129	38	-1.1252299435437
8	132	39	0.17051410919521
8	135	40	-0.19770183018409
8	138	41	0.82356644805986
8	141	42	-0.37709430232644
8	145	43	0.49934186926112
8	152	44	-0.91773413890041
8	155	45	1.1692987476708
8	158	46	-0.68615060881712
8	161	47	0.0050356012070552
8	164	48	0.73234529723413
8	167	49	-1.2770192582393
8	170	50	-0.021746827522293
8	173	51	0.91510820807889
8	176	52	-0.4056365552824
8	180	53	0.71707845409401
8	187	54	-0.74252155283466
8	190	55	0.36312700272538
8	193	56	-0.19106717489194
8	196	57	0.0050541210221127
8	199	58	-0.66896398121025
7	21	7	28.609053899346
7	24	8	27.709925314689
7	27	9	28.157979810772
7	30	10	28.302336521724
7	33	11	27.854611279721
7	36	12	28.441696288109
7	40	13	29.073030554967
7	47	14	28.030488788894
7	50	15	28.070343758141
7	53	16	19.396601541892
7	56	17	9.9987499850396
7	59	18	2.2722173646556
7	62	19	0.5658007216718
7	65	20	0.11084719660786
7	68	21	0.052328360215506
7	71	22	0.001156030936309
7	75	23	0.00056190100126469
7	82	24	0.00022744726021163
7	85	25	2.3398819371724
7	88	26	4.7097240147796
7	91	27	7.1934748044005
7	94	28	8.9115800242871
7	97	29	10.738534276199
7	100	30	12.791085749574
7	103	31	14.679476009973
7	106	32	17.082095077203
7	110	33	18.68556012871
7	117	34	21.430011729884
7	120	35	23.835639885685
7	123	36	26.763449721329
7	126	37	29.016503501845
7	129	38	27.891273558301
7	132	39	28.061787667496
7	135	40	27.864085837312
7	138	41	28.687652285372
7	141	42	28.310557983046
7	145	43	28.809899852307
7	152	44	27.892165713406
7	155	45	29.061464461077
7	158	46	28.37531385226
7	161	47	28.380349453467
7	164	48	29.112694750701
7	167	49	27.835675492462
7	170	50	27.81392866494
7	173	51	28.729036873019
7	176	52	28.323400317736
7	180	53	29.04047877183
7	187	54	28.297957218995
7	190	55	28.661084221721
7	193	56	28.470017046829
7	196	57	28.475071167851
7	199	58	27.806107186641
6	18	6	76.65
6	21	7	76.65
6	24	8	76.65
6	27	9	76.65
6	30	10	76.65
6	33	11	76.65
6	36	12	76.65
6	40	13	76.65
6	47	14	76.65
6	50	15	76.65
6	53	16	76.65
6	56	17	76.65
6	59	18	76.65
6	62	19	76.65
6	65	20	76.65
6	68	21	76.65
6	71	22	76.65
6	75	23	76.65
6	82	24	76.65
6	85	25	76.65
6	88	26	76.65
6	91	27	76.65
6	94	28	76.65
6	97	29	76.65
6	100	30	76.65
6	103	31	76.65
6	106	32	76.65
6	110	33	76.65
6	117	34	76.65
6	120	35	76.65
6	123	36	76.65
6	126	37	76.65
6	129	38	76.65
6	132	39	76.65
6	135	40	76.65
6	138	41	76.65
6	141	42	76.65
6	145	43	76.65
6	152	44	76.65
6	155	45	76.65
6	158	46	76.65
6	161	47	76.65
6	164	48	76.65
6	167	49	76.65
6	170	50	76.65
6	173	51	76.65
6	176	52	76.65
6	180	53	76.65
6	187	54	76.65
6	190	55	76.65
6	193	56	76.65
6	196	57	76.65
6	199	58	76.65
5	18	6	27.6
5	21	7	27.6
5	24	8	56.209053899346
5	27	9	83.918979214035
5	30	10	112.07695902481
5	33	11	140.37929554653
5	36	12	168.23390682625
5	40	13	196.67560311436
5	47	14	225.74863366933
5	50	15	253.77912245822
5	53	16	281.84946621636
5	56	17	301.24606775825
5	59	18	311.24481774329
5	62	19	313.51703510795
5	65	20	314.08283582962
5	68	21	314.19368302623
5	71	22	314.24601138644
5	75	23	314.24716741738
5	82	24	314.24772931838
5	85	25	314.24795676564
5	88	26	316.58783870281
5	91	27	321.29756271759
5	94	28	328.49103752199
5	97	29	337.40261754628
5	100	30	348.14115182248
5	103	31	360.93223757205
5	106	32	375.61171358203
5	110	33	392.69380865923
5	117	34	411.37936878794
5	120	35	432.80938051782
5	123	36	456.64502040351
5	126	37	483.40847012484
5	129	38	512.42497362668
5	132	39	540.31624718499
5	135	40	568.37803485248
5	138	41	596.24212068979
5	141	42	624.92977297517
5	145	43	653.24033095821
5	152	44	682.05023081052
5	155	45	709.94239652392
5	158	46	739.003860985
5	161	47	767.37917483726
5	164	48	795.75952429073
5	167	49	824.87221904143
5	170	50	852.70789453389
5	173	51	880.52182319883
5	176	52	909.25086007185
5	180	53	937.57426038959
5	187	54	966.61473916142
5	190	55	994.91269638041
5	193	56	1023.5737806021
5	196	57	1052.043797649
5	199	58	1080.5188688168
14	40	13	0.973
14	47	14	4.3729879805779
14	50	15	8.8381248682011
14	53	16	6.1443901092633
14	56	17	0.15586116913647
14	59	18	6.3080158955641
14	62	19	8.8384403009795
14	65	20	1.9146964485542
14	68	21	0.973
14	71	22	0.973
14	75	23	0.973
14	82	24	0.973
14	85	25	0.973
14	88	26	1.8706170758911
14	91	27	3.5824551293259
14	94	28	4.8897002203771
14	97	29	5.6940115429488
14	100	30	7.7559992320304
14	103	31	8.5768777053898
14	106	32	10.143108313645
14	110	33	15.487083488069
14	117	34	2.7197853594376
14	120	35	10.908889069812
14	123	36	17.048711327014
14	126	37	16.751717126467
14	129	38	22.560554755955
14	132	39	8.0345219772215
14	135	40	6.5196302756026
14	138	41	6.4872093709286
14	141	42	0.52708363968321
14	145	43	0.53224323892828
14	152	44	13.170197573243
14	155	45	1.4016198570329
14	158	46	7.3091818646709
14	161	47	0.973
14	164	48	11.942640740858
14	167	49	2.6700811360106
14	170	50	7.779423998781
14	173	51	3.8657631619628
14	176	52	0.973
14	180	53	11.976162339161
14	187	54	0.973
14	190	55	13.644929157338
14	193	56	3.6360046522576
14	196	57	2.2594736756806
14	199	58	5.7405172556759
14	202	59	0.973
14	205	60	4.8699131565925
13	40	13	-1.0121632965747
13	47	14	0.014476087060757
13	50	15	0.6544062285684
13	53	16	0.24133810924832
13	56	17	-0.63323444430716
13	59	18	0.28271973493975
13	62	19	0.62254243553616
13	65	20	-0.38079625507817
13	68	21	-8.5923555620309
13	71	22	-8.9722043103237
13	75	23	-8.7777298159208
13	82	24	-1.4535598098792
13	85	25	-0.13954072324142
13	88	26	1.6578539076119
13	91	27	2.3366167150671
13	94	28	2.271683509578
13	97	29	2.0495276525617
13	100	30	2.3354775808984
13	103	31	2.1495438009733
13	106	32	2.2044036233565
13	110	33	2.9841277012601
13	117	34	0.044213660671947
13	120	35	1.7055819144007
13	123	36	2.567940734094
13	126	37	2.2114911616081
13	129	38	2.7704421307426
13	132	39	0.53350178805006
13	135	40	0.29321058047935
13	138	41	0.27481178962626
13	141	42	-0.5842485325411
13	145	43	-0.57317903533112
13	152	44	1.2430385258049
13	155	45	-0.45878219499718
13	158	46	0.39367909147404
13	161	47	-1.111741525121
13	164	48	1.0724822402699
13	167	49	-0.27359216858167
13	170	50	0.45435345161241
13	173	51	-0.10966839676257
13	176	52	-0.95575129275676
13	180	53	1.0635402618209
13	187	54	-1.3562580754515
13	190	55	1.3097175944131
13	193	56	-0.14038894081023
13	196	57	-0.33230139012448
13	199	58	0.17427008715458
13	202	59	-0.99573981051799
13	205	60	0.084213377907872
12	36	12	28.185867935272
12	40	13	27.173704638697
12	47	14	27.188180725758
12	50	15	27.842586954326
12	53	16	28.083925063575
12	56	17	27.450690619267
12	59	18	27.733410354207
12	62	19	28.355952789743
12	65	20	27.975156534665
12	68	21	19.382800972634
12	71	22	10.410596662311
12	75	23	1.6328668463898
12	82	24	0.17930703651053
12	85	25	0.039766313269112
12	88	26	1.697620220881
12	91	27	4.0342369359481
12	94	28	6.3059204455261
12	97	29	8.3554480980878
12	100	30	10.690925678986
12	103	31	12.84046947996
12	106	32	15.044873103316
12	110	33	18.029000804576
12	117	34	18.073214465248
12	120	35	19.778796379649
12	123	36	22.346737113743
12	126	37	24.558228275351
12	129	38	27.328670406094
12	132	39	27.862172194144
12	135	40	28.155382774623
12	138	41	28.430194564249
12	141	42	27.845946031708
12	145	43	27.272766996377
12	152	44	28.515805522182
12	155	45	28.057023327185
12	158	46	28.450702418659
12	161	47	27.338960893538
12	164	48	28.411443133808
12	167	49	28.137850965226
12	170	50	28.592204416838
12	173	51	28.482536020076
12	176	52	27.526784727319
12	180	53	28.59032498914
12	187	54	27.234066913688
12	190	55	28.543784508101
12	193	56	28.403395567291
12	196	57	28.071094177167
12	199	58	28.245364264321
12	202	59	27.249624453803
12	205	60	27.333837831711
11	33	11	76.65
11	36	12	76.65
11	40	13	76.65
11	47	14	76.65
11	50	15	76.65
11	53	16	76.65
11	56	17	76.65
11	59	18	76.65
11	62	19	76.65
11	65	20	76.65
11	68	21	76.65
11	71	22	76.65
11	75	23	76.65
11	82	24	76.65
11	85	25	76.65
11	88	26	76.65
11	91	27	76.65
11	94	28	76.65
11	97	29	76.65
11	100	30	76.65
11	103	31	76.65
11	106	32	76.65
11	110	33	76.65
11	117	34	76.65
11	120	35	76.65
11	123	36	76.65
11	126	37	76.65
11	129	38	76.65
11	132	39	76.65
11	135	40	76.65
11	138	41	76.65
11	141	42	76.65
11	145	43	76.65
11	152	44	76.65
11	155	45	76.65
11	158	46	76.65
11	161	47	76.65
11	164	48	76.65
11	167	49	76.65
11	170	50	76.65
11	173	51	76.65
11	176	52	76.65
11	180	53	76.65
11	187	54	76.65
11	190	55	76.65
11	193	56	76.65
11	196	57	76.65
11	199	58	76.65
11	202	59	76.65
11	205	60	76.65
10	33	11	27.6
10	36	12	27.6
10	40	13	55.785867935272
10	47	14	82.959572573969
10	50	15	110.14775329973
10	53	16	137.99034025405
10	56	17	166.07426531763
10	59	18	193.52495593689
10	62	19	221.2583662911
10	65	20	249.61431908085
10	68	21	277.58947561551
10	71	22	296.97227658814
10	75	23	307.38287325046
10	82	24	309.01574009684
10	85	25	309.19504713336
10	88	26	309.23481344662
10	91	27	310.93243366751
10	94	28	314.96667060345
10	97	29	321.27259104898
10	100	30	329.62803914707
10	103	31	340.31896482605
10	106	32	353.15943430601
10	110	33	368.20430740933
10	117	34	386.23330821391
10	120	35	404.30652267915
10	123	36	424.0853190588
10	126	37	446.43205617255
10	129	38	470.9902844479
10	132	39	498.31895485399
10	135	40	526.18112704813
10	138	41	554.33650982276
10	141	42	582.76670438701
10	145	43	610.61265041871
10	152	44	637.88541741509
10	155	45	666.40122293727
10	158	46	694.45824626446
10	161	47	722.90894868312
10	164	48	750.24790957665
10	167	49	778.65935271046
10	170	50	806.79720367569
10	173	51	835.38940809253
10	176	52	863.8719441126
10	180	53	891.39872883992
10	187	54	919.98905382906
10	190	55	947.22312074275
10	193	56	975.76690525085
10	196	57	1004.1703008181
10	199	58	1032.2413949953
10	202	59	1060.4867592596
10	205	60	1087.7363837134
19	59	18	0.973
19	62	19	8.7656023505817
19	65	20	2.8067614496698
19	68	21	2.4722530214755
19	71	22	6.1995125269225
19	75	23	5.1887010820362
19	82	24	0.57091125970782
19	85	25	4.1147309328859
19	88	26	0.973
19	91	27	0.973
19	94	28	0.973
19	97	29	3.5630745202993
19	100	30	8.1456151449723
19	103	31	2.8610220476256
19	106	32	9.0083463351204
19	110	33	8.6735371027432
19	117	34	13.8768194607
19	120	35	11.357889972599
19	123	36	11.2709890406
19	126	37	9.8148538628449
19	129	38	14.222150284921
19	132	39	15.086671282671
19	135	40	19.805557497578
19	138	41	-0.52820618425796
19	141	42	6.0501435603841
19	145	43	5.687667290166
19	152	44	-0.26314758624878
19	155	45	8.3941657966087
19	158	46	0.973
19	161	47	8.1601509392387
19	164	48	9.5297656236652
19	167	49	4.0550092935349
19	170	50	3.6857397093286
19	173	51	0.973
19	176	52	8.9507844875976
19	180	53	5.0850022184872
19	187	54	7.7511318081257
19	190	55	0.973
19	193	56	8.6002167945698
19	196	57	2.0036920649664
19	199	58	9.3043846262227
19	202	59	5.1813406041148
19	205	60	3.9569675605839
19	208	61	6.49997819299
19	211	62	0.973
18	59	18	-1.0027814763598
18	62	19	0.6573272900423
18	65	20	-0.23075939028058
18	68	21	-0.27363085106481
18	71	22	0.28272506373469
18	75	23	0.12425474915653
18	82	24	-0.56181455100887
18	85	25	-0.015869066817686
18	88	26	-8.2870078807484
18	91	27	-7.1162723989468
18	94	28	-6.604693803016
18	97	29	1.3919619499599
18	100	30	2.9217599176336
18	103	31	0.50763206271223
18	106	32	2.4308776336256
18	110	33	1.9434270705096
18	117	34	2.81490995083
18	120	35	1.9170857103155
18	123	36	1.6888650552333
18	126	37	1.2718964127012
18	129	38	1.8792989234207
18	132	39	1.82167564868
18	135	40	2.2915070613116
18	138	41	-0.73237656767014
18	141	42	0.26253975054715
18	145	43	0.19837407837622
18	152	44	-0.68884672655258
18	155	45	0.61077837401535
18	158	46	-0.74388196400832
18	161	47	0.58496512274724
18	164	48	0.74337057117373
18	167	49	-0.063959105405957
18	170	50	-0.11467137315776
18	173	51	-0.98799380217679
18	176	52	0.68806953483727
18	180	53	0.10204486933071
18	187	54	0.47477115655784
18	190	55	-1.3001260320889
18	193	56	0.64046654349659
18	196	57	-0.34609046636615
18	199	58	0.72207479376812
18	202	59	0.10376351641025
18	205	60	-0.075100704096258
18	208	61	0.2886985077057
18	211	62	-0.98189240845386
17	56	17	27.968599276575
17	59	18	26.965817800215
17	62	19	27.623145090257
17	65	20	27.392385699977
17	68	21	27.118754848912
17	71	22	27.401479912647
17	75	23	27.525734661803
17	82	24	26.963920110794
17	85	25	26.948051043977
17	88	26	18.661043163228
17	91	27	11.544770764282
17	94	28	4.9400769612655
17	97	29	6.3320389112254
17	100	30	9.253798828859
17	103	31	9.7614308915712
17	106	32	12.192308525197
17	110	33	14.135735595706
17	117	34	16.950645546537
17	120	35	18.867731256852
17	123	36	20.556596312085
17	126	37	21.828492724787
17	129	38	23.707791648207
17	132	39	25.529467296887
17	135	40	27.820974358199
17	138	41	27.088597790529
17	141	42	27.351137541076
17	145	43	27.549511619452
17	152	44	26.860664892899
17	155	45	27.471443266915
17	158	46	26.727561302907
17	161	47	27.312526425654
17	164	48	28.055896996827
17	167	49	27.991937891422
17	170	50	27.877266518264
17	173	51	26.889272716087
17	176	52	27.577342250924
17	180	53	27.679387120255
17	187	54	28.154158276813
17	190	55	26.854032244724
17	193	56	27.49449878822
17	196	57	27.148408321854
17	199	58	27.870483115622
17	202	59	27.974246632033
17	205	60	27.899145927936
17	208	61	28.187844435642
17	211	62	27.205952027188
16	53	16	76.65
16	56	17	76.65
16	59	18	76.65
16	62	19	76.65
16	65	20	76.65
16	68	21	76.65
16	71	22	76.65
16	75	23	76.65
16	82	24	76.65
16	85	25	76.65
16	88	26	76.65
16	91	27	76.65
16	94	28	76.65
16	97	29	76.65
16	100	30	76.65
16	103	31	76.65
16	106	32	76.65
16	110	33	76.65
16	117	34	76.65
16	120	35	76.65
16	123	36	76.65
16	126	37	76.65
16	129	38	76.65
16	132	39	76.65
16	135	40	76.65
16	138	41	76.65
16	141	42	76.65
16	145	43	76.65
16	152	44	76.65
16	155	45	76.65
16	158	46	76.65
16	161	47	76.65
16	164	48	76.65
16	167	49	76.65
16	170	50	76.65
16	173	51	76.65
16	176	52	76.65
16	180	53	76.65
16	187	54	76.65
16	190	55	76.65
16	193	56	76.65
16	196	57	76.65
16	199	58	76.65
16	202	59	76.65
16	205	60	76.65
16	208	61	76.65
16	211	62	76.65
15	53	16	27.6
15	56	17	27.6
15	59	18	55.568599276575
15	62	19	82.53441707679
15	65	20	110.15756216705
15	68	21	137.54994786702
15	71	22	164.66870271594
15	75	23	192.07018262858
15	82	24	219.59591729039
15	85	25	246.55983740118
15	88	26	273.50788844516
15	91	27	292.16893160839
15	94	28	303.71370237267
15	97	29	308.65377933393
15	100	30	314.98581824516
15	103	31	324.23961707402
15	106	32	334.00104796559
15	110	33	346.19335649079
15	117	34	360.32909208649
15	120	35	377.27973763303
15	123	36	396.14746888988
15	126	37	416.70406520197
15	129	38	438.53255792675
15	132	39	462.24034957496
15	135	40	487.76981687185
15	138	41	515.59079123005
15	141	42	542.67938902057
15	145	43	570.03052656165
15	152	44	597.5800381811
15	155	45	624.440703074
15	158	46	651.91214634092
15	161	47	678.63970764382
15	164	48	705.95223406948
15	167	49	734.0081310663
15	170	50	762.00006895773
15	173	51	789.87733547599
15	176	52	816.76660819208
15	180	53	844.343950443
15	187	54	872.02333756326
15	190	55	900.17749584007
15	193	56	927.03152808479
15	196	57	954.52602687301
15	199	58	981.67443519487
15	202	59	1009.5449183105
15	205	60	1037.5191649425
15	208	61	1065.4183108705
15	211	62	1093.6061553061
24	75	23	1.7198140054505
24	82	24	6.1081315522163
24	85	25	0.45128873086585
24	88	26	3.9248539072026
24	91	27	5.9903169423355
24	94	28	5.5287536501706
24	97	29	0.973
24	100	30	6.9005996942308
24	103	31	4.8978301872648
24	106	32	0.973
24	110	33	8.398453072371
24	117	34	0.973
24	120	35	0.973
24	123	36	0.973
24	126	37	0.973
24	129	38	0.973
24	132	39	0.973
24	135	40	0.973
24	138	41	0.973
24	141	42	0.973
24	145	43	0.973
24	152	44	2.1667853383874
24	155	45	2.8781957736676
24	158	46	4.6761276627414
24	161	47	5.9214893082221
24	164	48	8.1708009159349
24	167	49	6.4052560015849
24	170	50	10.551598297057
24	173	51	11.941366063825
24	176	52	14.845486435154
24	180	53	19.143720651506
24	187	54	10.585640449762
24	190	55	1.745994452582
24	193	56	5.1422734836215
24	196	57	6.4059272959713
24	199	58	5.4855445000829
24	202	59	2.6770114268533
24	205	60	4.3959947610159
24	208	61	1.768243271352
24	211	62	1.6234649769288
24	215	63	2.9507934666554
24	222	64	2.7952095974108
24	225	65	4.1606699960437
24	228	66	1.0184996929552
24	231	67	9.5587339189075
24	234	68	2.6126465950745
24	237	69	5.0778611384977
24	240	70	3.853957277743
24	243	71	1.5102515398416
24	246	72	5.9657330584892
24	250	73	0.973
24	257	74	8.6016041134377
24	260	75	0.75893763008728
24	263	76	3.7502388831921
24	266	77	1.6088641962311
24	269	78	3.5748533645159
24	272	79	2.1588767978879
24	275	80	7.0633944019931
24	278	81	6.3006934830144
23	75	23	-0.30073112924583
23	82	24	0.45402796100825
23	85	25	-0.52526372484863
23	88	26	0.090403794078156
23	91	27	0.43355912924744
23	94	28	0.3361811946379
23	97	29	-0.91208067757543
23	100	30	0.59132538351696
23	103	31	0.23176921263803
23	106	32	-1.0026199776912
23	110	33	0.84686652501114
23	117	34	-23.891479374818
23	120	35	0
23	123	36	0
23	126	37	0
23	129	38	0
23	132	39	0
23	135	40	0
23	138	41	0
23	141	42	0
23	145	43	0
23	152	44	1.9956201383611
23	155	45	1.7521329573356
23	158	46	2.2522394793341
23	161	47	2.2067384758266
23	164	48	2.4939046441577
23	167	49	1.5377569533885
23	170	50	2.3949737761868
23	173	51	2.3376752512995
23	176	52	2.5700692384271
23	180	53	2.9353846481536
23	187	54	1.2418969052152
23	190	55	-0.29774682840798
23	193	56	0.28998738701921
23	196	57	0.48371609626338
23	199	58	0.31056106241886
23	202	59	-0.16025595855899
23	205	60	0.12743186764419
23	208	61	-0.3108863462694
23	211	62	-0.32849156437442
23	215	63	-0.094402023358271
23	222	64	-0.11798438499682
23	225	65	0.11711572401691
23	228	66	-0.42477597494144
23	231	67	1.0140804470284
23	234	68	-0.16586153092794
23	237	69	0.24606227944605
23	240	70	0.036604714463465
23	243	71	-0.35367047949694
23	246	72	0.3930231006816
23	250	73	-1.3852918519406
23	257	74	0.87617230508476
23	260	75	-0.4738375490997
23	263	76	0.052355016348884
23	266	77	-0.31800043070689
23	269	78	0.031929343007505
23	272	79	-0.21503786102403
23	275	80	0.62813141033985
23	278	81	0.46825912815984
22	71	22	23.648041684041
22	75	23	23.347310554796
22	82	24	23.801338515804
22	85	25	23.276074790955
22	88	26	23.366478585033
22	91	27	23.800037714281
22	94	28	24.136218908919
22	97	29	23.224138231343
22	100	30	23.81546361486
22	103	31	24.047232827498
22	106	32	23.044612849807
22	110	33	23.891479374818
22	117	34	0
22	120	35	0
22	123	36	0
22	126	37	0
22	129	38	0
22	132	39	0
22	135	40	0
22	138	41	0
22	141	42	0
22	145	43	0
22	152	44	1.9956201383611
22	155	45	3.7477530956967
22	158	46	5.9999925750308
22	161	47	8.2067310508573
22	164	48	10.700635695015
22	167	49	12.238392648404
22	170	50	14.63336642459
22	173	51	16.97104167589
22	176	52	19.541110914317
22	180	53	22.476495562471
22	187	54	23.718392467686
22	190	55	23.420645639278
22	193	56	23.710633026297
22	196	57	24.19434912256
22	199	58	24.504910184979
22	202	59	24.34465422642
22	205	60	24.472086094064
22	208	61	24.161199747795
22	211	62	23.832708183421
22	215	63	23.738306160062
22	222	64	23.620321775065
22	225	65	23.737437499082
22	228	66	23.312661524141
22	231	67	24.326741971169
22	234	68	24.160880440241
22	237	69	24.406942719687
22	240	70	24.443547434151
22	243	71	24.089876954654
22	246	72	24.482900055336
22	250	73	23.097608203395
22	257	74	23.97378050848
22	260	75	23.49994295938
22	263	76	23.552297975729
22	266	77	23.234297545022
22	269	78	23.26622688803
22	272	79	23.051189027006
22	275	80	23.679320437345
22	278	81	24.147579565505
21	68	21	76.65
21	71	22	76.65
21	75	23	76.65
21	82	24	76.65
21	85	25	76.65
21	88	26	76.65
21	91	27	76.65
21	94	28	76.65
21	97	29	76.65
21	100	30	76.65
21	103	31	76.65
21	106	32	76.65
21	110	33	76.65
21	117	34	76.65
21	120	35	76.65
21	123	36	76.65
21	126	37	76.65
21	129	38	76.65
21	132	39	76.65
21	135	40	76.65
21	138	41	76.65
21	141	42	76.65
21	145	43	76.65
21	152	44	76.65
21	155	45	76.65
21	158	46	76.65
21	161	47	76.65
21	164	48	76.65
21	167	49	76.65
21	170	50	76.65
21	173	51	76.65
21	176	52	76.65
21	180	53	76.65
21	187	54	76.65
21	190	55	76.65
21	193	56	76.65
21	196	57	76.65
21	199	58	76.65
21	202	59	76.65
21	205	60	76.65
21	208	61	76.65
21	211	62	76.65
21	215	63	76.65
21	222	64	76.65
21	225	65	76.65
21	228	66	76.65
21	231	67	76.65
21	234	68	76.65
21	237	69	76.65
21	240	70	76.65
21	243	71	76.65
21	246	72	76.65
21	250	73	76.65
21	257	74	76.65
21	260	75	76.65
21	263	76	76.65
21	266	77	76.65
21	269	78	76.65
21	272	79	76.65
21	275	80	76.65
21	278	81	76.65
20	68	21	27.6
20	71	22	27.6
20	75	23	51.248041684041
20	82	24	74.595352238837
20	85	25	98.396690754641
20	88	26	121.6727655456
20	91	27	145.03924413063
20	94	28	168.83928184491
20	97	29	192.97550075383
20	100	30	216.19963898517
20	103	31	240.01510260003
20	106	32	264.06233542753
20	110	33	287.10694827734
20	117	34	310.99842765216
20	120	35	320.25
20	123	36	320.25
20	126	37	320.25
20	129	38	320.25
20	132	39	320.25
20	135	40	320.25
20	138	41	320.25
20	141	42	320.25
20	145	43	320.25
20	152	44	320.25
20	155	45	322.24562013836
20	158	46	325.99337323406
20	161	47	331.99336580909
20	164	48	340.20009685995
20	167	49	350.90073255496
20	170	50	363.13912520336
20	173	51	377.77249162795
20	176	52	394.74353330384
20	180	53	414.28464421816
20	187	54	436.76113978063
20	190	55	460.47953224832
20	193	56	483.9001778876
20	196	57	507.61081091389
20	199	58	531.80516003645
20	202	59	556.31007022143
20	205	60	580.65472444785
20	208	61	605.12681054192
20	211	62	629.28801028971
20	215	63	653.12071847313
20	222	64	676.85902463319
20	225	65	700.47934640826
20	228	66	724.21678390734
20	231	67	747.52944543148
20	234	68	771.85618740265
20	237	69	796.01706784289
20	240	70	820.42401056258
20	243	71	844.86755799673
20	246	72	868.95743495139
20	250	73	893.44033500672
20	257	74	916.53794321012
20	260	75	940.5117237186
20	263	76	964.01166667798
20	266	77	987.56396465371
20	269	78	1010.7982621987
20	272	79	1034.0644890868
20	275	80	1057.1156781138
20	278	81	1080.7949985511
29	94	28	5.754529403278
29	97	29	4.9858038120998
29	100	30	1.031036190352
29	103	31	3.9208490831598
29	106	32	9.9739360157494
29	110	33	2.5921328459627
29	117	34	2.6445305697191
29	120	35	0.973
29	123	36	0.973
29	126	37	0.973
29	129	38	0.973
29	132	39	1.1165711356573
29	135	40	0.973
29	138	41	1.1102325695631
29	141	42	1.1100386774325
29	145	43	0.973
29	152	44	0.973
29	155	45	1.6729907782439
29	158	46	2.3375650225354
29	161	47	3.3234053326226
29	164	48	4.9631841013009
29	167	49	4.601431951107
29	170	50	9.2979099751846
29	173	51	9.2350984062123
29	176	52	12.815935844689
29	180	53	12.502974588263
29	187	54	10.37851208634
29	190	55	19.132946371528
29	193	56	13.355697446403
29	196	57	22.142876369565
29	199	58	5.1819184146245
29	202	59	0.973
29	205	60	2.0309302408621
29	208	61	3.2678978731399
29	211	62	0.973
29	215	63	0.973
29	222	64	7.9457636619446
29	225	65	3.1690861501178
29	228	66	2.3897747901098
29	231	67	0.973
29	234	68	17.163565630233
29	237	69	0.973
29	240	70	5.4405303881444
29	243	71	5.304749292951
29	246	72	1.6232254169762
29	250	73	0.973
29	257	74	0.70791927728604
29	260	75	5.3618529090595
29	263	76	5.3226507810008
29	266	77	3.8415014664234
29	269	78	0.973
29	272	79	8.6157476214807
29	275	80	5.6754498556733
29	278	81	0.39631752071631
29	281	82	6.2634297277639
29	285	83	19.764798517431
28	94	28	0.015538307838142
28	97	29	-0.081297066179104
28	100	30	-0.58373815915547
28	103	31	-0.19247061456554
28	106	32	0.58180507365614
28	110	33	-0.37649380008224
28	117	34	-0.35862464632373
28	120	35	-9.81
28	123	36	-8.6897497058396
28	126	37	-9.81
28	129	38	-2.3492199116539
28	132	39	-0.031197260323405
28	135	40	-0.14786934106398
28	138	41	-0.0084552820159054
28	141	42	-0.0042147086285376
28	145	43	-0.00081901624986828
28	152	44	0
28	155	45	1.4312413123346
28	158	46	1.5215274282556
28	161	47	1.7459857600043
28	164	48	2.1250173869776
28	167	49	1.511311156908
28	170	50	2.8026898935204
28	173	51	2.2495052539743
28	176	52	2.7166138230823
28	180	53	2.2468716792064
28	187	54	1.5774602988968
28	190	55	2.8793503643246
28	193	56	1.6482813974144
28	196	57	2.7271776152775
28	199	58	0.13237982500325
28	202	59	-1.2737286010619
28	205	60	-0.30557397272448
28	208	61	-0.10272342468929
28	211	62	-0.76111314524487
28	215	63	-1.6943167364042
28	222	64	0.76476476796723
28	225	65	-0.061023654097653
28	228	66	-0.1911471150632
28	231	67	-0.92271211338559
28	234	68	2.2255818964348
28	237	69	-0.77399676456004
28	240	70	0.30212846336341
28	243	71	0.26648479336664
28	246	72	-0.34212261936766
28	250	73	-0.69080086702884
28	257	74	-0.4795078122891
28	260	75	0.33345736296099
28	263	76	0.31126236807367
28	266	77	0.052337169546618
28	269	78	-1.7641511631558
28	272	79	0.93985206964352
28	275	80	0.39214868241252
28	278	81	-0.53179828529538
28	281	82	0.49772061284748
28	285	83	2.5149820185034
27	91	27	31.846806130587
27	94	28	31.862344438425
27	97	29	31.781047372246
27	100	30	31.197309213091
27	103	31	31.004838598525
27	106	32	31.586643672181
27	110	33	31.210149872099
27	117	34	30.851525225775
27	120	35	21.041525225775
27	123	36	12.351775519936
27	126	37	2.5417755199356
27	129	38	0.19255560828169
27	132	39	0.16135834795829
27	135	40	0.013489006894311
27	138	41	0.0050337248784059
27	141	42	0.00081901624986828
27	145	43	0
27	152	44	0
27	155	45	1.4312413123346
27	158	46	2.9527687405901
27	161	47	4.6987545005944
27	164	48	6.823771887572
27	167	49	8.33508304448
27	170	50	11.137772938
27	173	51	13.387278191975
27	176	52	16.103892015057
27	180	53	18.350763694263
27	187	54	19.92822399316
27	190	55	22.807574357485
27	193	56	24.455855754899
27	196	57	27.183033370177
27	199	58	27.31541319518
27	202	59	26.041684594118
27	205	60	25.736110621394
27	208	61	25.633387196704
27	211	62	24.872274051459
27	215	63	23.177957315055
27	222	64	23.942722083022
27	225	65	23.881698428925
27	228	66	23.690551313862
27	231	67	22.767839200476
27	234	68	24.993421096911
27	237	69	24.219424332351
27	240	70	24.521552795714
27	243	71	24.788037589081
27	246	72	24.445914969713
27	250	73	23.755114102684
27	257	74	23.275606290395
27	260	75	23.609063653356
27	263	76	23.92032602143
27	266	77	23.972663190976
27	269	78	22.208512027821
27	272	79	23.148364097464
27	275	80	23.540512779877
27	278	81	23.008714494581
27	281	82	23.506435107429
27	285	83	26.021417125932
26	88	26	76.65
26	91	27	76.65
26	94	28	76.65
26	97	29	76.65
26	100	30	76.65
26	103	31	76.65
26	106	32	76.65
26	110	33	76.65
26	117	34	76.65
26	120	35	76.65
26	123	36	76.65
26	126	37	76.65
26	129	38	76.65
26	132	39	76.65
26	135	40	76.65
26	138	41	76.65
26	141	42	76.65
26	145	43	76.65
26	152	44	76.65
26	155	45	76.65
26	158	46	76.65
26	161	47	76.65
26	164	48	76.65
26	167	49	76.65
26	170	50	76.65
26	173	51	76.65
26	176	52	76.65
26	180	53	76.65
26	187	54	76.65
26	190	55	76.65
26	193	56	76.65
26	196	57	76.65
26	199	58	76.65
26	202	59	76.65
26	205	60	76.65
26	208	61	76.65
26	211	62	76.65
26	215	63	76.65
26	222	64	76.65
26	225	65	76.65
26	228	66	76.65
26	231	67	76.65
26	234	68	76.65
26	237	69	76.65
26	240	70	76.65
26	243	71	76.65
26	246	72	76.65
26	250	73	76.65
26	257	74	76.65
26	260	75	76.65
26	263	76	76.65
26	266	77	76.65
26	269	78	76.65
26	272	79	76.65
26	275	80	76.65
26	278	81	76.65
26	281	82	76.65
26	285	83	76.65
25	88	26	27.6
25	91	27	27.6
25	94	28	59.446806130587
25	97	29	91.309150569012
25	100	30	123.09019794126
25	103	31	154.28750715435
25	106	32	185.29234575287
25	110	33	216.87898942505
25	117	34	248.08913929715
25	120	35	278.94066452293
25	123	36	299.9821897487
25	126	37	312.33396526864
25	129	38	314.87574078858
25	132	39	315.06829639686
25	135	40	315.22965474482
25	138	41	315.24314375171
25	141	42	315.24817747659
25	145	43	315.24899649284
25	152	44	315.24899649284
25	155	45	315.24899649284
25	158	46	316.68023780517
25	161	47	319.63300654576
25	164	48	324.33176104636
25	167	49	331.15553293393
25	170	50	339.49061597841
25	173	51	350.62838891641
25	176	52	364.01566710838
25	180	53	380.11955912344
25	187	54	398.4703228177
25	190	55	418.39854681086
25	193	56	441.20612116835
25	196	57	465.66197692325
25	199	58	492.84501029343
25	202	59	520.16042348861
25	205	60	546.20210808272
25	208	61	571.93821870412
25	211	62	597.57160590082
25	215	63	622.44387995228
25	222	64	645.62183726734
25	225	65	669.56455935036
25	228	66	693.44625777928
25	231	67	717.13680909315
25	234	68	739.90464829362
25	237	69	764.89806939053
25	240	70	789.11749372288
25	243	71	813.6390465186
25	246	72	838.42708410768
25	250	73	862.87299907739
25	257	74	886.62811318008
25	260	75	909.90371947047
25	263	76	933.51278312383
25	266	77	957.43310914526
25	269	78	981.40577233623
25	272	79	1003.6142843641
25	275	80	1026.7626484615
25	278	81	1050.3031612414
25	281	82	1073.311875736
25	285	83	1096.8183108434
34	110	33	3.8659757209588
34	117	34	4.869130155239
34	120	35	6.6523318641192
34	123	36	4.0811594471718
34	126	37	4.973427140971
34	129	38	0.973
34	132	39	9.8094229342761
34	135	40	5.6936560427032
34	138	41	4.8006824986352
34	141	42	0.973
34	145	43	0.973
34	152	44	0.973
34	155	45	1.1105049945691
34	158	46	1.6310518700359
34	161	47	1.3084625156123
34	164	48	2.8133336421008
34	167	49	4.0440350835677
34	170	50	6.7885656966773
34	173	51	5.5135562115047
34	176	52	9.9022322453719
34	180	53	11.164515519992
34	187	54	10.772081750982
34	190	55	13.834917419058
34	193	56	11.865680507456
34	196	57	19.367567994548
34	199	58	18.190649860428
34	202	59	0.53322888536218
34	205	60	0.973
34	208	61	7.0458135670164
34	211	62	4.9016597023796
34	215	63	1.4927738541286
34	222	64	10.342099991995
34	225	65	-0.010009061125303
34	228	66	2.2690217163896
34	231	67	5.6029373391956
34	234	68	0.973
34	237	69	15.71380997662
34	240	70	0.973
34	243	71	5.3910787881188
34	246	72	0.973
34	250	73	9.0483228470262
34	257	74	0.973
34	260	75	0.973
34	263	76	6.6809916287234
34	266	77	12.445096337945
34	269	78	0.973
34	272	79	0.973
34	275	80	8.3350538228566
34	278	81	0.1113631623428
34	281	82	0.71070268326644
34	285	83	4.9087024264754
34	292	84	15.099344513758
33	110	33	0.0067289869766682
33	117	34	0.16412850120105
33	120	35	0.43124269670807
33	123	36	0.018435291945934
33	126	37	0.15459434653167
33	129	38	-1.1266257794341
33	132	39	0.93837723357137
33	135	40	0.26555942127015
33	138	41	0.11877061310224
33	141	42	-8.6085267292338
33	145	43	-9.81
33	152	44	-7.7993882350631
33	155	45	-0.027667893270392
33	158	46	1.3668923065013
33	161	47	0.29166685993674
33	164	48	1.8199391198577
33	167	49	2.003963834024
33	170	50	2.6628050263971
33	173	51	1.6300033740699
33	176	52	2.6691227105912
33	180	53	2.5029225738253
33	187	54	2.0464845865499
33	190	55	2.3795031878399
33	193	56	1.7412137071369
33	196	57	2.7536290772259
33	199	58	2.2503940994798
33	202	59	-0.54463843815029
33	205	60	-0.66696779150516
33	208	61	0.51996752887499
33	211	62	0.16310232609976
33	215	63	-0.38102072803304
33	222	64	0.99742116685957
33	225	65	-0.6327343020821
33	228	66	-0.25623052229639
33	231	67	0.27656701114029
33	234	68	-1.4830335680262
33	237	69	1.871901815185
33	240	70	-0.81540657672634
33	243	71	0.25048309826924
33	246	72	-0.88063924351908
33	250	73	0.84942798448593
33	257	74	-1.8166408245569
33	260	75	-0.88335975539723
33	263	76	0.58483012396475
33	266	77	1.4654561396291
33	269	78	-0.88163499469256
33	272	79	-0.95736063938645
33	275	80	0.84550854138526
33	278	81	-0.58479700183366
33	281	82	-0.47067565807365
33	285	83	0.2831643325122
33	292	84	1.8957380675711
32	106	32	25.286518999395
32	110	33	25.293247986372
32	117	34	25.457376487573
32	120	35	25.888619184281
32	123	36	25.907054476227
32	126	37	26.061648822758
32	129	38	24.935023043324
32	132	39	25.873400276896
32	135	40	26.138959698166
32	138	41	26.257730311268
32	141	42	17.649203582034
32	145	43	7.8392035820344
32	152	44	0.039815346971284
32	155	45	0.012147453700892
32	158	46	1.3790397602022
32	161	47	1.6707066201389
32	164	48	3.4906457399966
32	167	49	5.4946095740207
32	170	50	8.1574146004178
32	173	51	9.7874179744877
32	176	52	12.456540685079
32	180	53	14.959463258904
32	187	54	17.005947845454
32	190	55	19.385451033294
32	193	56	21.126664740431
32	196	57	23.880293817657
32	199	58	26.130687917137
32	202	59	25.586049478986
32	205	60	24.919081687481
32	208	61	25.439049216356
32	211	62	25.602151542456
32	215	63	25.221130814423
32	222	64	26.218551981283
32	225	65	25.5858176792
32	228	66	25.329587156904
32	231	67	25.606154168044
32	234	68	24.123120600018
32	237	69	25.995022415203
32	240	70	25.179615838477
32	243	71	25.430098936746
32	246	72	24.549459693227
32	250	73	25.398887677713
32	257	74	23.582246853156
32	260	75	22.698887097759
32	263	76	23.283717221724
32	266	77	24.749173361353
32	269	78	23.86753836666
32	272	79	22.910177727274
32	275	80	23.755686268659
32	278	81	23.170889266825
32	281	82	22.700213608752
32	285	83	22.983377941264
32	292	84	24.879116008835
31	103	31	76.65
31	106	32	76.65
31	110	33	76.65
31	117	34	76.65
31	120	35	76.65
31	123	36	76.65
31	126	37	76.65
31	129	38	76.65
31	132	39	76.65
31	135	40	76.65
31	138	41	76.65
31	141	42	76.65
31	145	43	76.65
31	152	44	76.65
31	155	45	76.65
31	158	46	76.65
31	161	47	76.65
31	164	48	76.65
31	167	49	76.65
31	170	50	76.65
31	173	51	76.65
31	176	52	76.65
31	180	53	76.65
31	187	54	76.65
31	190	55	76.65
31	193	56	76.65
31	196	57	76.65
31	199	58	76.65
31	202	59	76.65
31	205	60	76.65
31	208	61	76.65
31	211	62	76.65
31	215	63	76.65
31	222	64	76.65
31	225	65	76.65
31	228	66	76.65
31	231	67	76.65
31	234	68	76.65
31	237	69	76.65
31	240	70	76.65
31	243	71	76.65
31	246	72	76.65
31	250	73	76.65
31	257	74	76.65
31	260	75	76.65
31	263	76	76.65
31	266	77	76.65
31	269	78	76.65
31	272	79	76.65
31	275	80	76.65
31	278	81	76.65
31	281	82	76.65
31	285	83	76.65
31	292	84	76.65
30	103	31	27.6
30	106	32	27.6
30	110	33	52.886518999395
30	117	34	78.179766985767
30	120	35	103.63714347334
30	123	36	129.52576265762
30	126	37	155.43281713385
30	129	38	181.49446595661
30	132	39	206.42948899993
30	135	40	232.30288927683
30	138	41	258.44184897499
30	141	42	284.69957928626
30	145	43	302.34878286829
30	152	44	310.18798645033
30	155	45	310.2278017973
30	158	46	310.239949251
30	161	47	311.6189890112
30	164	48	313.28969563134
30	167	49	316.78034137134
30	170	50	322.27495094536
30	173	51	330.43236554578
30	176	52	340.21978352026
30	180	53	352.67632420534
30	187	54	367.63578746425
30	190	55	384.6417353097
30	193	56	404.027186343
30	196	57	425.15385108343
30	199	58	449.03414490108
30	202	59	475.16483281822
30	205	60	500.75088229721
30	208	61	525.66996398469
30	211	62	551.10901320104
30	215	63	576.7111647435
30	222	64	601.93229555792
30	225	65	628.15084753921
30	228	66	653.73666521841
30	231	67	679.06625237531
30	234	68	704.67240654336
30	237	69	728.79552714337
30	240	70	754.79054955858
30	243	71	779.97016539705
30	246	72	805.4002643338
30	250	73	829.94972402703
30	257	74	855.34861170474
30	260	75	878.9308585579
30	263	76	901.62974565565
30	266	77	924.91346287738
30	269	78	949.66263623873
30	272	79	973.53017460539
30	275	80	996.44035233266
30	278	81	1020.1960386013
30	281	82	1043.3669278681
30	285	83	1066.0671414769
30	292	84	1089.0505194182
39	129	38	0.73712323631422
39	132	39	1.3896159070603
39	135	40	7.3173596862876
39	138	41	2.119478329721
39	141	42	1.9386744159695
39	145	43	4.8955871524551
39	152	44	3.3095543103842
39	155	45	0.973
39	158	46	1.9099105514865
39	161	47	4.5888907456314
39	164	48	1.8251041329817
39	167	49	2.7245268693951
39	170	50	0.973
39	173	51	0.973
39	176	52	1.9818756841137
39	180	53	4.8263254229431
39	187	54	9.9522604112794
39	190	55	10.875238734602
39	193	56	12.815546547942
39	196	57	14.56449463492
39	199	58	0.973
39	202	59	4.1086711866346
39	205	60	3.5148576620329
39	208	61	3.9906494689152
39	211	62	0.973
39	215	63	7.9096961099247
39	222	64	3.9651621088897
39	225	65	0.589263176742
39	228	66	1.4473062043292
39	231	67	5.7372836740934
39	234	68	1.9237357545699
39	237	69	0.973
39	240	70	5.5021130911367
39	243	71	4.090811321097
39	246	72	3.6182851739145
39	250	73	0.973
39	257	74	4.5486853884445
39	260	75	0.973
39	263	76	9.9928394178167
39	266	77	0.973
39	269	78	5.3638309531874
39	272	79	2.0900715777009
39	275	80	0.973
39	278	81	9.546462673724
39	281	82	0.973
39	285	83	1.0839730704517
39	292	84	3.1207570484778
39	295	85	4.0465793824584
39	298	86	1.6500017747645
39	301	87	5.7356592725174
39	304	88	5.5529138666475
39	307	89	0.93124261051964
39	310	90	4.3384516935716
39	313	91	1.5441623806284
38	129	38	-0.43818811245728
38	132	39	-0.3013278124854
38	135	40	0.84511111630127
38	138	41	-0.16961397102568
38	141	42	-0.20055549102835
38	145	43	0.37030611606315
38	152	44	0.05726610228885
38	155	45	-0.57725403900258
38	158	46	-0.19808275694959
38	161	47	0.32919553562533
38	164	48	-0.21782974828966
38	167	49	-0.035179007216357
38	170	50	-7.203047680463
38	173	51	-2.1186946128965
38	176	52	0.072042175032919
38	180	53	0.9986922720734
38	187	54	2.2462476196233
38	190	55	2.1278493715217
38	193	56	2.2355904767755
38	196	57	2.2680560655884
38	199	58	-1.3385936587583
38	202	59	0.26511714875232
38	205	60	0.13690478203353
38	208	61	0.2245796083007
38	211	62	-0.60216186591424
38	215	63	0.98853032430634
38	222	64	0.19416868966073
38	225	65	-0.46719461283647
38	228	66	-0.28846624342259
38	231	67	0.55598515144084
38	234	68	-0.19937207491603
38	237	69	-0.48672015708871
38	240	70	0.51885979087092
38	243	71	0.22524267551489
38	246	72	0.12629804376047
38	250	73	-0.65360984788276
38	257	74	0.32610572443809
38	260	75	-0.865519272862
38	263	76	1.3683234828059
38	266	77	-0.99053852632642
38	269	78	0.48959435813595
38	272	79	-0.16322858340573
38	275	80	-0.55680799728725
38	278	81	1.2757144515635
38	281	82	-0.77845018159132
38	285	83	-0.36030974867754
38	292	84	0.05818802153226
38	295	85	0.23805866972543
38	298	86	-0.24450963700656
38	301	87	0.56233087833971
38	304	88	0.49687018780969
38	307	89	-0.40170821570791
38	310	90	0.26551419426687
38	313	91	-0.27918092231266
37	126	37	21.058876605129
37	129	38	20.620688492672
37	132	39	20.319360680186
37	135	40	21.164471796487
37	138	41	20.994857825462
37	141	42	20.794302334433
37	145	43	21.164608450497
37	152	44	21.221874552785
37	155	45	20.644620513783
37	158	46	20.446537756833
37	161	47	20.775733292459
37	164	48	20.557903544169
37	167	49	20.522724536953
37	170	50	13.31967685649
37	173	51	11.200982243593
37	176	52	11.273024418626
37	180	53	12.271716690699
37	187	54	14.517964310323
37	190	55	16.645813681844
37	193	56	18.88140415862
37	196	57	21.149460224208
37	199	58	19.81086656545
37	202	59	20.075983714202
37	205	60	20.212888496236
37	208	61	20.437468104537
37	211	62	19.835306238622
37	215	63	20.823836562929
37	222	64	21.018005252589
37	225	65	20.550810639753
37	228	66	20.26234439633
37	231	67	20.818329547771
37	234	68	20.618957472855
37	237	69	20.132237315767
37	240	70	20.651097106637
37	243	71	20.876339782152
37	246	72	21.002637825913
37	250	73	20.34902797803
37	257	74	20.675133702468
37	260	75	19.809614429606
37	263	76	21.177937912412
37	266	77	20.187399386086
37	269	78	20.676993744222
37	272	79	20.513765160816
37	275	80	19.956957163529
37	278	81	21.232671615092
37	281	82	20.454221433501
37	285	83	20.093911684823
37	292	84	20.152099706355
37	295	85	20.390158376081
37	298	86	20.145648739074
37	301	87	20.707979617414
37	304	88	21.204849805224
37	307	89	20.803141589516
37	310	90	21.068655783783
37	313	91	20.78947486147
36	123	36	76.65
36	126	37	76.65
36	129	38	76.65
36	132	39	76.65
36	135	40	76.65
36	138	41	76.65
36	141	42	76.65
36	145	43	76.65
36	152	44	76.65
36	155	45	76.65
36	158	46	76.65
36	161	47	76.65
36	164	48	76.65
36	167	49	76.65
36	170	50	76.65
36	173	51	76.65
36	176	52	76.65
36	180	53	76.65
36	187	54	76.65
36	190	55	76.65
36	193	56	76.65
36	196	57	76.65
36	199	58	76.65
36	202	59	76.65
36	205	60	76.65
36	208	61	76.65
36	211	62	76.65
36	215	63	76.65
36	222	64	76.65
36	225	65	76.65
36	228	66	76.65
36	231	67	76.65
36	234	68	76.65
36	237	69	76.65
36	240	70	76.65
36	243	71	76.65
36	246	72	76.65
36	250	73	76.65
36	257	74	76.65
36	260	75	76.65
36	263	76	76.65
36	266	77	76.65
36	269	78	76.65
36	272	79	76.65
36	275	80	76.65
36	278	81	76.65
36	281	82	76.65
36	285	83	76.65
36	292	84	76.65
36	295	85	76.65
36	298	86	76.65
36	301	87	76.65
36	304	88	76.65
36	307	89	76.65
36	310	90	76.65
36	313	91	76.65
35	123	36	27.6
35	126	37	27.6
35	129	38	48.658876605129
35	132	39	69.2795650978
35	135	40	89.598925777987
35	138	41	110.76339757447
35	141	42	131.75825539994
35	145	43	152.55255773437
35	152	44	173.71716618487
35	155	45	194.93904073765
35	158	46	215.58366125143
35	161	47	236.03019900827
35	164	48	256.80593230073
35	167	49	277.36383584489
35	170	50	297.88656038185
35	173	51	311.20623723834
35	176	52	322.40721948193
35	180	53	333.68024390056
35	187	54	345.95196059126
35	190	55	360.46992490158
35	193	56	377.11573858342
35	196	57	395.99714274204
35	199	58	417.14660296625
35	202	59	436.9574695317
35	205	60	457.0334532459
35	208	61	477.24634174214
35	211	62	497.68380984668
35	215	63	517.5191160853
35	222	64	538.34295264823
35	225	65	559.36095790082
35	228	66	579.91176854057
35	231	67	600.1741129369
35	234	68	620.99244248467
35	237	69	641.61139995753
35	240	70	661.74363727329
35	243	71	682.39473437993
35	246	72	703.27107416208
35	250	73	724.273711988
35	257	74	744.62273996603
35	260	75	765.29787366849
35	263	76	785.1074880981
35	266	77	806.28542601051
35	269	78	826.4728253966
35	272	79	847.14981914082
35	275	80	867.66358430164
35	278	81	887.62054146516
35	281	82	908.85321308026
35	285	83	929.30743451376
35	292	84	949.40134619858
35	295	85	969.55344590494
35	298	86	989.94360428102
35	301	87	1010.0892530201
35	304	88	1030.7972326375
35	307	89	1052.0020824427
35	310	90	1072.8052240322
35	313	91	1093.873879816
44	145	43	6.1374001617388
44	152	44	3.6762054318944
44	155	45	6.0341875913163
44	158	46	2.6093679010173
44	161	47	0.973
44	164	48	9.0662131405596
44	167	49	3.023905796522
44	170	50	0.973
44	173	51	0.973
44	176	52	0.973
44	180	53	0.973
44	187	54	6.7621130148728
44	190	55	8.830757766756
44	193	56	8.8170889887842
44	196	57	7.5008427282343
44	199	58	13.352005539011
44	202	59	4.9720030610561
44	205	60	1.9032291021961
44	208	61	0.973
44	211	62	8.0293079099928
44	215	63	0.973
44	222	64	5.5469147143365
44	225	65	8.0254328481328
44	228	66	1.8968361910292
44	231	67	0.973
44	234	68	2.9624432088826
44	237	69	3.9106228847157
44	240	70	0.973
44	243	71	5.0510270931394
44	246	72	3.7279876599631
44	250	73	3.2609588031232
44	257	74	0.973
44	260	75	7.3827144548879
44	263	76	0.973
44	266	77	12.718856513767
44	269	78	0.973
44	272	79	8.4849958762618
44	275	80	0.973
44	278	81	6.5229638289793
44	281	82	8.9232828861313
44	285	83	0.973
44	292	84	0.973
44	295	85	10.243204725783
44	298	86	2.3250584905042
44	301	87	0.8515391644979
44	304	88	2.3071295648997
44	307	89	12.108588375114
44	310	90	0.973
44	313	91	8.5638589161016
44	316	92	0.973
43	145	43	0.19699452503119
43	152	44	-0.14997472520918
43	155	45	0.1807910297066
43	158	46	-0.29991266538855
43	161	47	-0.92771272128448
43	164	48	0.65003760822583
43	167	49	-0.22416479384895
43	170	50	-2.5582614738793
43	173	51	-7.1750312545027
43	176	52	-4.7965386168577
43	180	53	-1.9252889357047
43	187	54	1.4997586407401
43	190	55	1.833578877215
43	193	56	1.6066410338127
43	196	57	1.1612725771425
43	199	58	2.1792134310817
43	202	59	0.42194960933743
43	205	60	-0.19543946308541
43	208	61	-0.62682778788725
43	211	62	1.0246924837586
43	215	63	-0.85459021301161
43	222	64	0.54489130447362
43	225	65	0.97030262336119
43	228	66	-0.2165264429743
43	231	67	-0.68523915167026
43	234	68	0.015437224241513
43	237	69	0.19921585956407
43	240	70	-0.53452407876461
43	243	71	0.43385795907917
43	246	72	0.1600633477566
43	250	73	0.064129431910949
43	257	74	-0.97543844945129
43	260	75	0.89374597620463
43	263	76	-1.2203108236069
43	266	77	1.8811982741507
43	269	78	-0.85497250155404
43	272	79	1.042790781217
43	275	80	-1.6161035164419
43	278	81	0.72427298806632
43	281	82	1.1086284042291
43	285	83	-1.5587902230784
43	292	84	-0.83588706006547
43	295	85	1.4544071842868
43	298	86	-0.12069669481065
43	301	87	-0.41074511594248
43	304	88	-0.10993959513565
43	307	89	1.7025429175867
43	310	90	-1.5399560993815
43	313	91	1.0691084147944
43	316	92	-0.51415581637674
42	141	42	28.798798441959
42	145	43	28.99579296699
42	152	44	28.845818241781
42	155	45	29.026609271487
42	158	46	28.726696606099
42	161	47	27.798983884814
42	164	48	28.44902149304
42	167	49	28.224856699191
42	170	50	25.666595225312
42	173	51	18.491563970809
42	176	52	13.695025353951
42	180	53	11.769736418247
42	187	54	13.269495058987
42	190	55	15.103073936202
42	193	56	16.709714970015
42	196	57	17.870987547157
42	199	58	20.050200978239
42	202	59	20.472150587576
42	205	60	20.276711124491
42	208	61	19.649883336604
42	211	62	20.674575820362
42	215	63	19.819985607351
42	222	64	20.364876911824
42	225	65	21.335179535185
42	228	66	21.118653092211
42	231	67	20.433413940541
42	234	68	20.448851164782
42	237	69	20.648067024346
42	240	70	20.113542945582
42	243	71	20.547400904661
42	246	72	20.707464252418
42	250	73	20.771593684328
42	257	74	19.796155234877
42	260	75	20.689901211082
42	263	76	19.469590387475
42	266	77	21.350788661626
42	269	78	20.495816160072
42	272	79	21.538606941289
42	275	80	19.922503424847
42	278	81	20.646776412913
42	281	82	21.755404817142
42	285	83	20.196614594064
42	292	84	19.360727533998
42	295	85	20.815134718285
42	298	86	20.694438023475
42	301	87	20.283692907532
42	304	88	20.173753312396
42	307	89	21.876296229983
42	310	90	20.336340130602
42	313	91	21.405448545396
42	316	92	20.891292729019
41	138	41	76.65
41	141	42	76.65
41	145	43	76.65
41	152	44	76.65
41	155	45	76.65
41	158	46	76.65
41	161	47	76.65
41	164	48	76.65
41	167	49	76.65
41	170	50	76.65
41	173	51	76.65
41	176	52	76.65
41	180	53	76.65
41	187	54	76.65
41	190	55	76.65
41	193	56	76.65
41	196	57	76.65
41	199	58	76.65
41	202	59	76.65
41	205	60	76.65
41	208	61	76.65
41	211	62	76.65
41	215	63	76.65
41	222	64	76.65
41	225	65	76.65
41	228	66	76.65
41	231	67	76.65
41	234	68	76.65
41	237	69	76.65
41	240	70	76.65
41	243	71	76.65
41	246	72	76.65
41	250	73	76.65
41	257	74	76.65
41	260	75	76.65
41	263	76	76.65
41	266	77	76.65
41	269	78	76.65
41	272	79	76.65
41	275	80	76.65
41	278	81	76.65
41	281	82	76.65
41	285	83	76.65
41	292	84	76.65
41	295	85	76.65
41	298	86	76.65
41	301	87	76.65
41	304	88	76.65
41	307	89	76.65
41	310	90	76.65
41	313	91	76.65
41	316	92	76.65
40	138	41	27.6
40	141	42	27.6
40	145	43	56.398798441959
40	152	44	85.394591408949
40	155	45	114.24040965073
40	158	46	143.26701892222
40	161	47	171.99371552832
40	164	48	199.79269941313
40	167	49	228.24172090617
40	170	50	256.46657760536
40	173	51	282.13317283067
40	176	52	300.62473680148
40	180	53	314.31976215543
40	187	54	326.08949857368
40	190	55	339.35899363267
40	193	56	354.46206756887
40	196	57	371.17178253888
40	199	58	389.04277008604
40	202	59	409.09297106428
40	205	60	429.56512165186
40	208	61	449.84183277635
40	211	62	469.49171611295
40	215	63	490.16629193331
40	222	64	509.98627754066
40	225	65	530.35115445249
40	228	66	551.68633398767
40	231	67	572.80498707988
40	234	68	593.23840102042
40	237	69	613.68725218521
40	240	70	634.33531920955
40	243	71	654.44886215513
40	246	72	674.99626305979
40	250	73	695.70372731221
40	257	74	716.47532099654
40	260	75	736.27147623142
40	263	76	756.9613774425
40	266	77	776.43096782997
40	269	78	797.7817564916
40	272	79	818.27757265167
40	275	80	839.81617959296
40	278	81	859.73868301781
40	281	82	880.38545943072
40	285	83	902.14086424786
40	292	84	922.33747884193
40	295	85	941.69820637592
40	298	86	962.51334109421
40	301	87	983.20777911768
40	304	88	1003.4914720252
40	307	89	1023.6652253376
40	310	90	1045.5415215676
40	313	91	1065.8778616982
40	316	92	1087.2833102436
49	164	48	2.9030584082569
49	167	49	15.328823635641
49	170	50	6.7314192349311
49	173	51	0.973
49	176	52	5.2882217432122
49	180	53	5.5911379351932
49	187	54	0.973
49	190	55	0.973
49	193	56	0.973
49	196	57	0.973
49	199	58	0.973
49	202	59	0.973
49	205	60	1.1105979506622
49	208	61	1.1100966084536
49	211	62	1.110039122193
49	215	63	1.1100128822147
49	222	64	2.7317953428259
49	225	65	3.3994566013275
49	228	66	4.2549386574495
49	231	67	4.4869554207659
49	234	68	6.1224076617704
49	237	69	9.1249710436506
49	240	70	10.780069706725
49	243	71	11.423996235807
49	246	72	16.811490478325
49	250	73	10.846399354145
49	257	74	21.164323371865
49	260	75	23.833108646615
49	263	76	16.55537004317
49	266	77	19.854043949641
49	269	78	22.877142085471
49	272	79	12.840465392549
49	275	80	18.142742351453
49	278	81	0.973
49	281	82	7.5369371195006
49	285	83	10.899012233363
49	292	84	1.1306154296152
49	295	85	16.411550860494
49	298	86	-0.10474596555501
49	301	87	3.3873935965836
49	304	88	11.825592215404
49	307	89	10.408394914249
49	310	90	0.2392815774913
49	313	91	7.5660589927744
49	316	92	0.973
49	320	93	0.973
49	327	94	25.739902087678
48	164	48	-0.42849456577096
48	167	49	1.0061981094768
48	170	50	-0.0088635730789974
48	173	51	-1.2469660477946
48	176	52	-0.12315748434048
48	180	53	-0.082437896891406
48	187	54	-7.5604431261089
48	190	55	-9.306536048362
48	193	56	-9.7562514133193
48	196	57	-5.7813012860298
48	199	58	-1.1122434574031
48	202	59	-0.11811705710711
48	205	60	-0.020364710068645
48	208	61	-0.011672568142711
48	211	62	-0.00131034419209
48	215	63	-0.00054855659533669
48	222	64	2.4946777336299
48	225	65	1.9361879846547
48	228	66	1.8592039318755
48	231	67	1.5609211628325
48	234	68	1.8969637941336
48	237	69	2.4655693788081
48	240	70	2.4531117168954
48	243	71	2.2241583131254
48	246	72	2.9352653806563
48	250	73	1.5179798979079
48	257	74	2.9920917763375
48	260	75	2.9673308471683
48	263	76	1.6882136729546
48	266	77	1.9467975029256
48	269	78	2.1137057833839
48	272	79	0.79849472321027
48	275	80	1.3339793543564
48	278	81	-1.3353202671278
48	281	82	0.14150579657871
48	285	83	0.52024807431735
48	292	84	-0.63747146457899
48	295	85	1.143000216689
48	298	86	-0.79633798403665
48	301	87	-0.3605525867315
48	304	88	0.63283491600305
48	307	89	0.43674255546648
48	310	90	-0.75359250535257
48	313	91	0.12960362094101
48	316	92	-3.5454878223395
48	320	93	-2.260179334084
48	327	94	2.7020484628156
47	161	47	34.552777803829
47	164	48	34.124283238058
47	167	49	35.130481347535
47	170	50	35.121617774456
47	173	51	33.874651726661
47	176	52	33.751494242321
47	180	53	33.669056345429
47	187	54	26.10861321932
47	190	55	16.802077170958
47	193	56	7.0458257576391
47	196	57	1.2645244716093
47	199	58	0.15228101420619
47	202	59	0.034163957099077
47	205	60	0.013799247030431
47	208	61	0.0021266788877203
47	211	62	0.00081633469563026
47	215	63	0.00026777810029357
47	222	64	2.4949455117302
47	225	65	4.4311334963849
47	228	66	6.2903374282604
47	231	67	7.851258591093
47	234	68	9.7482223852266
47	237	69	12.213791764035
47	240	70	14.66690348093
47	243	71	16.891061794055
47	246	72	19.826327174712
47	250	73	21.34430707262
47	257	74	24.336398848957
47	260	75	27.303729696126
47	263	76	28.99194336908
47	266	77	30.938740872006
47	269	78	33.05244665539
47	272	79	33.8509413786
47	275	80	35.184920732956
47	278	81	33.849600465829
47	281	82	33.991106262407
47	285	83	34.511354336725
47	292	84	33.873882872146
47	295	85	35.016883088835
47	298	86	34.220545104798
47	301	87	33.859992518066
47	304	88	34.492827434069
47	307	89	34.929569989536
47	310	90	34.175977484183
47	313	91	34.305581105124
47	316	92	30.760093282785
47	320	93	28.499913948701
47	327	94	31.201962411517
46	158	46	76.65
46	161	47	76.65
46	164	48	76.65
46	167	49	76.65
46	170	50	76.65
46	173	51	76.65
46	176	52	76.65
46	180	53	76.65
46	187	54	76.65
46	190	55	76.65
46	193	56	76.65
46	196	57	76.65
46	199	58	76.65
46	202	59	76.65
46	205	60	76.65
46	208	61	76.65
46	211	62	76.65
46	215	63	76.65
46	222	64	76.65
46	225	65	76.65
46	228	66	76.65
46	231	67	76.65
46	234	68	76.65
46	237	69	76.65
46	240	70	76.65
46	243	71	76.65
46	246	72	76.65
46	250	73	76.65
46	257	74	76.65
46	260	75	76.65
46	263	76	76.65
46	266	77	76.65
46	269	78	76.65
46	272	79	76.65
46	275	80	76.65
46	278	81	76.65
46	281	82	76.65
46	285	83	76.65
46	292	84	76.65
46	295	85	76.65
46	298	86	76.65
46	301	87	76.65
46	304	88	76.65
46	307	89	76.65
46	310	90	76.65
46	313	91	76.65
46	316	92	76.65
46	320	93	76.65
46	327	94	76.65
45	158	46	27.6
45	161	47	27.6
45	164	48	62.152777803829
45	167	49	96.277061041887
45	170	50	131.40754238942
45	173	51	166.52916016388
45	176	52	200.40381189054
45	180	53	234.15530613286
45	187	54	267.82436247829
45	190	55	293.93297569761
45	193	56	310.73505286857
45	196	57	317.78087862621
45	199	58	319.04540309782
45	202	59	319.19768411202
45	205	60	319.23184806912
45	208	61	319.24564731615
45	211	62	319.24777399504
45	215	63	319.24859032974
45	222	64	319.24885810784
45	225	65	321.74380361957
45	228	66	326.17493711595
45	231	67	332.46527454421
45	234	68	340.3165331353
45	237	69	350.06475552053
45	240	70	362.27854728457
45	243	71	376.9454507655
45	246	72	393.83651255955
45	250	73	413.66283973426
45	257	74	435.00714680688
45	260	75	459.34354565584
45	263	76	486.64727535197
45	266	77	515.63921872105
45	269	78	546.57795959305
45	272	79	579.63040624844
45	275	80	613.48134762704
45	278	81	648.66626836
45	281	82	682.51586882583
45	285	83	716.50697508823
45	292	84	751.01832942496
45	295	85	784.8922122971
45	298	86	819.90909538594
45	301	87	854.12964049074
45	304	88	887.9896330088
45	307	89	922.48246044287
45	310	90	957.41203043241
45	313	91	991.58800791659
45	316	92	1025.8935890217
45	320	93	1056.6536823045
45	327	94	1085.1535962532

