version 2
run General-68-20200211-12:45:08-39082
attr configname General
attr datetime 20200211-12:45:08
attr experiment General
attr inifile omnetpp.ini
attr iterationvars $0=68
attr iterationvarsf 68-
attr measurement $0=68
attr network scenario
attr processid 39082
attr repetition 0
attr replication #0
attr resultdir veins-runall-output
attr runnumber 68
attr seedset 68
param *.playgroundSizeX 10672m
param *.playgroundSizeY 7105m
param *.playgroundSizeZ 10000m
param *.annotations.draw false
param *.world.useTorus false
param *.world.use2D false
param *.manager.updateInterval 1s
param *.manager.host "\"localhost\""
param *.manager.port 9999
param *.manager.moduleType "\"org.car2x.veins.nodes.Car\""
param *.manager.moduleName "\"node\""
param *.manager.moduleDisplayString "\"\""
param *.manager.autoShutdown true
param *.manager.margin 25
param *.manager.launchConfig "xmldoc(\"sumo-launchd.launch.xml\")"
param *.manager.trafficLightModuleType "\"org.car2x.veins.nodes.TrafficLight\""
param *.manager.trafficLightModuleName "\"trafficLight\""
param *.manager.trafficLightModuleDisplayString default
param *.manager.trafficLightFilter "\"10\""
param *.manager.ignoreGuiCommands true
param *.trafficLight[*].mobility.x 0
param *.trafficLight[*].mobility.y 0
param *.trafficLight[*].mobility.z 3
param *.trafficLight[*].applType "\"org.car2x.veins.subprojects.veins_testsims.traci.TraCITrafficLightApp\""
param *.trafficLight[*].logicType "\"org.car2x.veins.subprojects.veins_testsims.traci.TraCITrafficLightTestLogic\""
param *.trafficLight[*].appl.headerLength "80 bit"
param *.trafficLight[*].appl.sendBeacons false
param *.trafficLight[*].appl.dataOnSch true
param *.connectionManager.sendDirect true
param *.connectionManager.maxInterfDist 2600m
param *.connectionManager.drawMaxIntfDist false
param *.**.nic.mac1609_4.useServiceChannel false
param *.**.nic.mac1609_4.txPower 20mW
param *.**.nic.mac1609_4.bitrate 18Mbps
param *.**.nic.phy80211p.minPowerLevel -110dBm
param *.**.nic.phy80211p.useNoiseFloor true
param *.**.nic.phy80211p.noiseFloor -98dBm
param *.**.nic.phy80211p.decider "xmldoc(\"config.xml\")"
param *.**.nic.phy80211p.analogueModels "xmldoc(\"config.xml\")"
param *.**.nic.phy80211p.usePropagationDelay true
param *.node[*].applType "\"org.car2x.veins.subprojects.veins_testsims.traci.TraCITestApp\""
param *.node[0].appl.testNumber 68
param *.node[*].appl.testNumber -1
param *.node[*].veinsmobilityType "\"org.car2x.veins.modules.mobility.traci.TraCIMobility\""
param *.node[*].veinsmobility.x 0
param *.node[*].veinsmobility.y 0
param *.node[*].veinsmobility.z 1.895
param *.node[*].veinsmobility.accidentCount 0
param *.node[*].veinsmobility.setHostSpeed true

vector 0 scenario.node[0].veinsmobility posx ETV
vector 1 scenario.node[0].veinsmobility posy ETV
vector 2 scenario.node[0].veinsmobility speed ETV
vector 3 scenario.node[0].veinsmobility acceleration ETV
vector 4 scenario.node[0].veinsmobility co2emission ETV
vector 5 scenario.node[1].veinsmobility posx ETV
vector 6 scenario.node[1].veinsmobility posy ETV
vector 7 scenario.node[1].veinsmobility speed ETV
vector 8 scenario.node[1].veinsmobility acceleration ETV
vector 9 scenario.node[1].veinsmobility co2emission ETV
vector 10 scenario.node[2].veinsmobility posx ETV
vector 11 scenario.node[2].veinsmobility posy ETV
vector 12 scenario.node[2].veinsmobility speed ETV
vector 13 scenario.node[2].veinsmobility acceleration ETV
vector 14 scenario.node[2].veinsmobility co2emission ETV
vector 15 scenario.node[3].veinsmobility posx ETV
vector 16 scenario.node[3].veinsmobility posy ETV
vector 17 scenario.node[3].veinsmobility speed ETV
vector 18 scenario.node[3].veinsmobility acceleration ETV
vector 19 scenario.node[3].veinsmobility co2emission ETV
vector 20 scenario.node[4].veinsmobility posx ETV
vector 21 scenario.node[4].veinsmobility posy ETV
vector 22 scenario.node[4].veinsmobility speed ETV
vector 23 scenario.node[4].veinsmobility acceleration ETV
vector 24 scenario.node[4].veinsmobility co2emission ETV
vector 25 scenario.node[5].veinsmobility posx ETV
vector 26 scenario.node[5].veinsmobility posy ETV
vector 27 scenario.node[5].veinsmobility speed ETV
vector 28 scenario.node[5].veinsmobility acceleration ETV
vector 29 scenario.node[5].veinsmobility co2emission ETV
vector 30 scenario.node[6].veinsmobility posx ETV
vector 31 scenario.node[6].veinsmobility posy ETV
vector 32 scenario.node[6].veinsmobility speed ETV
vector 33 scenario.node[6].veinsmobility acceleration ETV
vector 34 scenario.node[6].veinsmobility co2emission ETV
vector 35 scenario.node[7].veinsmobility posx ETV
vector 36 scenario.node[7].veinsmobility posy ETV
vector 37 scenario.node[7].veinsmobility speed ETV
vector 38 scenario.node[7].veinsmobility acceleration ETV
vector 39 scenario.node[7].veinsmobility co2emission ETV
vector 40 scenario.node[8].veinsmobility posx ETV
vector 41 scenario.node[8].veinsmobility posy ETV
vector 42 scenario.node[8].veinsmobility speed ETV
vector 43 scenario.node[8].veinsmobility acceleration ETV
vector 44 scenario.node[8].veinsmobility co2emission ETV
vector 45 scenario.node[9].veinsmobility posx ETV
vector 46 scenario.node[9].veinsmobility posy ETV
vector 47 scenario.node[9].veinsmobility speed ETV
vector 48 scenario.node[9].veinsmobility acceleration ETV
vector 49 scenario.node[9].veinsmobility co2emission ETV
4	6	3	9.0549579066719
4	8	4	8.4988778463559
4	10	5	0.046631045706452
4	12	6	1.346729538445
4	15	7	6.8698411864162
4	19	8	6.3845112230278
4	23	9	10.609141425341
4	25	10	0.973
4	27	11	0.973
4	29	12	0.973
4	31	13	0.973
4	33	14	0.973
4	35	15	1.1125999802452
4	37	16	1.1102770048266
4	39	17	1.1101034902093
4	41	18	1.1100235718259
4	43	19	1.110008687699
4	45	20	1.1100054551432
4	47	21	0.973
4	49	22	0.973
4	51	23	0.973
4	53	24	0.973
4	55	25	0.973
4	57	26	0.973
4	59	27	0.973
4	61	28	0.973
4	63	29	0.973
4	65	30	0.973
4	67	31	0.973
4	69	32	0.973
4	71	33	0.973
4	73	34	0.973
4	75	35	0.973
4	77	36	0.973
4	79	37	0.973
4	81	38	0.973
4	83	39	0.973
4	85	40	0.973
4	87	41	0.973
4	89	42	0.973
4	91	43	0.973
4	93	44	0.973
4	95	45	0.973
4	97	46	0.973
4	99	47	0.973
4	101	48	0.973
4	103	49	0.973
4	105	50	0.973
4	107	51	0.973
4	109	52	0.973
4	111	53	0.973
4	113	54	0.973
4	115	55	0.973
4	117	56	0.973
4	119	57	0.973
4	121	58	0.973
4	123	59	0.973
4	125	60	0.973
4	127	61	0.973
4	129	62	0.973
4	131	63	0.973
4	133	64	0.973
4	135	65	0.973
4	137	66	0.973
4	139	67	0.973
4	141	68	0.973
4	143	69	0.973
4	145	70	0.973
4	147	71	0.973
4	149	72	0.973
4	151	73	0.973
4	153	74	0.973
4	155	75	0.973
4	157	76	0.973
4	159	77	0.973
4	161	78	0.973
4	163	79	0.973
4	165	80	0.973
4	167	81	0.973
4	169	82	0.973
4	171	83	0.973
4	173	84	0.973
4	175	85	0.973
4	177	86	0.973
4	179	87	0.973
4	181	88	0.973
4	183	89	0.973
4	185	90	0.973
4	187	91	0.973
4	189	92	0.973
4	191	93	0.973
4	193	94	0.973
4	195	95	0.973
4	197	96	0.973
4	199	97	0.973
4	201	98	0.973
4	203	99	0.973
4	205	100	0.973
3	6	3	0.52293095912319
3	8	4	0.42359790159389
3	10	5	-0.69673392002005
3	12	6	-0.50619142258074
3	15	7	0.25186112383381
3	19	8	0.1763841798529
3	23	9	0.71072384552099
3	25	10	-5.6023233765891
3	27	11	-8.7788477902673
3	29	12	-9.81
3	31	13	-6.139514273573
3	33	14	-0.47616286351489
3	35	15	-0.014920677083299
3	37	16	-0.050554934459723
3	39	17	-0.0054769005162709
3	41	18	-0.0017128166504999
3	43	19	-0.00031247901913949
3	45	20	-6.7253439112011e-05
3	47	21	-0.00011312140764459
3	49	22	0
3	51	23	0
3	53	24	0
3	55	25	0
3	57	26	0
3	59	27	0
3	61	28	0
3	63	29	0
3	65	30	0
3	67	31	0
3	69	32	0
3	71	33	0
3	73	34	0
3	75	35	0
3	77	36	0
3	79	37	0
3	81	38	0
3	83	39	0
3	85	40	0
3	87	41	0
3	89	42	0
3	91	43	0
3	93	44	0
3	95	45	0
3	97	46	0
3	99	47	0
3	101	48	0
3	103	49	0
3	105	50	0
3	107	51	0
3	109	52	0
3	111	53	0
3	113	54	0
3	115	55	0
3	117	56	0
3	119	57	0
3	121	58	0
3	123	59	0
3	125	60	0
3	127	61	0
3	129	62	0
3	131	63	0
3	133	64	0
3	135	65	0
3	137	66	0
3	139	67	0
3	141	68	0
3	143	69	0
3	145	70	0
3	147	71	0
3	149	72	0
3	151	73	0
3	153	74	0
3	155	75	0
3	157	76	0
3	159	77	0
3	161	78	0
3	163	79	0
3	165	80	0
3	167	81	0
3	169	82	0
3	171	83	0
3	173	84	0
3	175	85	0
3	177	86	0
3	179	87	0
3	181	88	0
3	183	89	0
3	185	90	0
3	187	91	0
3	189	92	0
3	191	93	0
3	193	94	0
3	195	95	0
3	197	96	0
3	199	97	0
3	201	98	0
3	203	99	0
3	205	100	0
2	4	2	29.997433819196
2	6	3	30.520364778319
2	8	4	30.943962679913
2	10	5	30.247228759893
2	12	6	29.741037337312
2	15	7	29.992898461146
2	19	8	30.169282640999
2	23	9	30.88000648652
2	25	10	25.277683109931
2	27	11	16.498835319664
2	29	12	6.6888353196636
2	31	13	0.54932104609058
2	33	14	0.073158182575689
2	35	15	0.05823750549239
2	37	16	0.0076825710326669
2	39	17	0.002205670516396
2	41	18	0.00049285386589609
2	43	19	0.0001803748467566
2	45	20	0.00011312140764459
2	47	21	0
2	49	22	0
2	51	23	0
2	53	24	0
2	55	25	0
2	57	26	0
2	59	27	0
2	61	28	0
2	63	29	0
2	65	30	0
2	67	31	0
2	69	32	0
2	71	33	0
2	73	34	0
2	75	35	0
2	77	36	0
2	79	37	0
2	81	38	0
2	83	39	0
2	85	40	0
2	87	41	0
2	89	42	0
2	91	43	0
2	93	44	0
2	95	45	0
2	97	46	0
2	99	47	0
2	101	48	0
2	103	49	0
2	105	50	0
2	107	51	0
2	109	52	0
2	111	53	0
2	113	54	0
2	115	55	0
2	117	56	0
2	119	57	0
2	121	58	0
2	123	59	0
2	125	60	0
2	127	61	0
2	129	62	0
2	131	63	0
2	133	64	0
2	135	65	0
2	137	66	0
2	139	67	0
2	141	68	0
2	143	69	0
2	145	70	0
2	147	71	0
2	149	72	0
2	151	73	0
2	153	74	0
2	155	75	0
2	157	76	0
2	159	77	0
2	161	78	0
2	163	79	0
2	165	80	0
2	167	81	0
2	169	82	0
2	171	83	0
2	173	84	0
2	175	85	0
2	177	86	0
2	179	87	0
2	181	88	0
2	183	89	0
2	185	90	0
2	187	91	0
2	189	92	0
2	191	93	0
2	193	94	0
2	195	95	0
2	197	96	0
2	199	97	0
2	201	98	0
2	203	99	0
2	205	100	0
1	2	1	76.65
1	4	2	76.65
1	6	3	76.65
1	8	4	76.65
1	10	5	76.65
1	12	6	76.65
1	15	7	76.65
1	19	8	76.65
1	23	9	76.65
1	25	10	76.65
1	27	11	76.65
1	29	12	76.65
1	31	13	76.65
1	33	14	76.65
1	35	15	76.65
1	37	16	76.65
1	39	17	76.65
1	41	18	76.65
1	43	19	76.65
1	45	20	76.65
1	47	21	76.65
1	49	22	76.65
1	51	23	76.65
1	53	24	76.65
1	55	25	76.65
1	57	26	76.65
1	59	27	76.65
1	61	28	76.65
1	63	29	76.65
1	65	30	76.65
1	67	31	76.65
1	69	32	76.65
1	71	33	76.65
1	73	34	76.65
1	75	35	76.65
1	77	36	76.65
1	79	37	76.65
1	81	38	76.65
1	83	39	76.65
1	85	40	76.65
1	87	41	76.65
1	89	42	76.65
1	91	43	76.65
1	93	44	76.65
1	95	45	76.65
1	97	46	76.65
1	99	47	76.65
1	101	48	76.65
1	103	49	76.65
1	105	50	76.65
1	107	51	76.65
1	109	52	76.65
1	111	53	76.65
1	113	54	76.65
1	115	55	76.65
1	117	56	76.65
1	119	57	76.65
1	121	58	76.65
1	123	59	76.65
1	125	60	76.65
1	127	61	76.65
1	129	62	76.65
1	131	63	76.65
1	133	64	76.65
1	135	65	76.65
1	137	66	76.65
1	139	67	76.65
1	141	68	76.65
1	143	69	76.65
1	145	70	76.65
1	147	71	76.65
1	149	72	76.65
1	151	73	76.65
1	153	74	76.65
1	155	75	76.65
1	157	76	76.65
1	159	77	76.65
1	161	78	76.65
1	163	79	76.65
1	165	80	76.65
1	167	81	76.65
1	169	82	76.65
1	171	83	76.65
1	173	84	76.65
1	175	85	76.65
1	177	86	76.65
1	179	87	76.65
1	181	88	76.65
1	183	89	76.65
1	185	90	76.65
1	187	91	76.65
1	189	92	76.65
1	191	93	76.65
1	193	94	76.65
1	195	95	76.65
1	197	96	76.65
1	199	97	76.65
1	201	98	76.65
1	203	99	76.65
1	205	100	76.65
0	2	1	27.6
0	4	2	27.6
0	6	3	57.597433819196
0	8	4	88.117798597515
0	10	5	119.06176127743
0	12	6	149.30899003732
0	15	7	179.05002737463
0	19	8	209.04292583578
0	23	9	239.21220847678
0	25	10	270.0922149633
0	27	11	295.36989807323
0	29	12	311.86873339289
0	31	13	318.55756871256
0	33	14	319.10688975865
0	35	15	319.18004794122
0	37	16	319.23828544672
0	39	17	319.24596801775
0	41	18	319.24817368826
0	43	19	319.24866654213
0	45	20	319.24884691698
0	47	21	319.24896003838
0	49	22	319.24896003838
0	51	23	319.24896003838
0	53	24	319.24896003838
0	55	25	319.24896003838
0	57	26	319.24896003838
0	59	27	319.24896003838
0	61	28	319.24896003838
0	63	29	319.24896003838
0	65	30	319.24896003838
0	67	31	319.24896003838
0	69	32	319.24896003838
0	71	33	319.24896003838
0	73	34	319.24896003838
0	75	35	319.24896003838
0	77	36	319.24896003838
0	79	37	319.24896003838
0	81	38	319.24896003838
0	83	39	319.24896003838
0	85	40	319.24896003838
0	87	41	319.24896003838
0	89	42	319.24896003838
0	91	43	319.24896003838
0	93	44	319.24896003838
0	95	45	319.24896003838
0	97	46	319.24896003838
0	99	47	319.24896003838
0	101	48	319.24896003838
0	103	49	319.24896003838
0	105	50	319.24896003838
0	107	51	319.24896003838
0	109	52	319.24896003838
0	111	53	319.24896003838
0	113	54	319.24896003838
0	115	55	319.24896003838
0	117	56	319.24896003838
0	119	57	319.24896003838
0	121	58	319.24896003838
0	123	59	319.24896003838
0	125	60	319.24896003838
0	127	61	319.24896003838
0	129	62	319.24896003838
0	131	63	319.24896003838
0	133	64	319.24896003838
0	135	65	319.24896003838
0	137	66	319.24896003838
0	139	67	319.24896003838
0	141	68	319.24896003838
0	143	69	319.24896003838
0	145	70	319.24896003838
0	147	71	319.24896003838
0	149	72	319.24896003838
0	151	73	319.24896003838
0	153	74	319.24896003838
0	155	75	319.24896003838
0	157	76	319.24896003838
0	159	77	319.24896003838
0	161	78	319.24896003838
0	163	79	319.24896003838
0	165	80	319.24896003838
0	167	81	319.24896003838
0	169	82	319.24896003838
0	171	83	319.24896003838
0	173	84	319.24896003838
0	175	85	319.24896003838
0	177	86	319.24896003838
0	179	87	319.24896003838
0	181	88	319.24896003838
0	183	89	319.24896003838
0	185	90	319.24896003838
0	187	91	319.24896003838
0	189	92	319.24896003838
0	191	93	319.24896003838
0	193	94	319.24896003838
0	195	95	319.24896003838
0	197	96	319.24896003838
0	199	97	319.24896003838
0	201	98	319.24896003838
0	203	99	319.24896003838
0	205	100	319.24896003838
9	19	8	0.973
9	23	9	7.571291812718
9	25	10	5.5542453148332
9	27	11	1.4446197809318
9	29	12	8.6315642222256
9	31	13	9.2060826741665
9	33	14	0.973
9	35	15	4.7769539228436
9	37	16	0.973
9	39	17	0.973
9	41	18	0.973
9	43	19	0.973
9	45	20	0.973
9	47	21	1.1117863443988
9	49	22	1.1100415101447
9	51	23	1.1100270256483
9	53	24	1.1100109537228
9	55	25	0.973
9	57	26	0.973
9	59	27	0.973
9	61	28	0.973
9	63	29	0.973
9	65	30	0.973
9	67	31	0.973
9	69	32	0.973
9	71	33	0.973
9	73	34	0.973
9	75	35	0.973
9	77	36	0.973
9	79	37	0.973
9	81	38	0.973
9	83	39	0.973
9	85	40	0.973
9	87	41	0.973
9	89	42	0.973
9	91	43	0.973
9	93	44	0.973
9	95	45	0.973
9	97	46	0.973
9	99	47	0.973
9	101	48	0.973
9	103	49	0.973
9	105	50	0.973
9	107	51	0.973
9	109	52	0.973
9	111	53	0.973
9	113	54	0.973
9	115	55	0.973
9	117	56	0.973
9	119	57	0.973
9	121	58	0.973
9	123	59	0.973
9	125	60	0.973
9	127	61	0.973
9	129	62	0.973
9	131	63	0.973
9	133	64	0.973
9	135	65	0.973
9	137	66	0.973
9	139	67	0.973
9	141	68	0.973
9	143	69	0.973
9	145	70	0.973
9	147	71	0.973
9	149	72	0.973
9	151	73	0.973
9	153	74	0.973
9	155	75	0.973
9	157	76	0.973
9	159	77	0.973
9	161	78	0.973
9	163	79	0.973
9	165	80	0.973
9	167	81	0.973
9	169	82	0.973
9	171	83	0.973
9	173	84	0.973
9	175	85	0.973
9	177	86	0.973
9	179	87	0.973
9	181	88	0.973
9	183	89	0.973
9	185	90	0.973
9	187	91	0.973
9	189	92	0.973
9	191	93	0.973
9	193	94	0.973
9	195	95	0.973
9	197	96	0.973
9	199	97	0.973
9	201	98	0.973
9	203	99	0.973
9	205	100	0.973
8	19	8	-0.89912858465686
8	23	9	0.44805449608248
8	25	10	0.14435671095271
8	27	11	-0.4477252420038
8	29	12	0.58708500838839
8	31	13	0.63133426685818
8	33	14	-1.0425417660736
8	35	15	0.039854969247244
8	37	16	-8.6737422162491
8	39	17	-9.3978515568522
8	41	18	-7.726532620384
8	43	19	-1.7064166429838
8	45	20	-0.45495352506394
8	47	21	-0.058518836392356
8	49	22	-0.051172329279197
8	51	23	-0.00059412993504426
8	53	24	-0.00033445374105306
8	55	25	-0.00022744726021163
8	57	26	0
8	59	27	0
8	61	28	0
8	63	29	0
8	65	30	0
8	67	31	0
8	69	32	0
8	71	33	0
8	73	34	0
8	75	35	0
8	77	36	0
8	79	37	0
8	81	38	0
8	83	39	0
8	85	40	0
8	87	41	0
8	89	42	0
8	91	43	0
8	93	44	0
8	95	45	0
8	97	46	0
8	99	47	0
8	101	48	0
8	103	49	0
8	105	50	0
8	107	51	0
8	109	52	0
8	111	53	0
8	113	54	0
8	115	55	0
8	117	56	0
8	119	57	0
8	121	58	0
8	123	59	0
8	125	60	0
8	127	61	0
8	129	62	0
8	131	63	0
8	133	64	0
8	135	65	0
8	137	66	0
8	139	67	0
8	141	68	0
8	143	69	0
8	145	70	0
8	147	71	0
8	149	72	0
8	151	73	0
8	153	74	0
8	155	75	0
8	157	76	0
8	159	77	0
8	161	78	0
8	163	79	0
8	165	80	0
8	167	81	0
8	169	82	0
8	171	83	0
8	173	84	0
8	175	85	0
8	177	86	0
8	179	87	0
8	181	88	0
8	183	89	0
8	185	90	0
8	187	91	0
8	189	92	0
8	191	93	0
8	193	94	0
8	195	95	0
8	197	96	0
8	199	97	0
8	201	98	0
8	203	99	0
8	205	100	0
7	15	7	28.609053899346
7	19	8	27.709925314689
7	23	9	28.157979810772
7	25	10	28.302336521724
7	27	11	27.854611279721
7	29	12	28.441696288109
7	31	13	29.073030554967
7	33	14	28.030488788894
7	35	15	28.070343758141
7	37	16	19.396601541892
7	39	17	9.9987499850396
7	41	18	2.2722173646556
7	43	19	0.5658007216718
7	45	20	0.11084719660786
7	47	21	0.052328360215506
7	49	22	0.001156030936309
7	51	23	0.00056190100126469
7	53	24	0.00022744726021163
7	55	25	0
7	57	26	0
7	59	27	0
7	61	28	0
7	63	29	0
7	65	30	0
7	67	31	0
7	69	32	0
7	71	33	0
7	73	34	0
7	75	35	0
7	77	36	0
7	79	37	0
7	81	38	0
7	83	39	0
7	85	40	0
7	87	41	0
7	89	42	0
7	91	43	0
7	93	44	0
7	95	45	0
7	97	46	0
7	99	47	0
7	101	48	0
7	103	49	0
7	105	50	0
7	107	51	0
7	109	52	0
7	111	53	0
7	113	54	0
7	115	55	0
7	117	56	0
7	119	57	0
7	121	58	0
7	123	59	0
7	125	60	0
7	127	61	0
7	129	62	0
7	131	63	0
7	133	64	0
7	135	65	0
7	137	66	0
7	139	67	0
7	141	68	0
7	143	69	0
7	145	70	0
7	147	71	0
7	149	72	0
7	151	73	0
7	153	74	0
7	155	75	0
7	157	76	0
7	159	77	0
7	161	78	0
7	163	79	0
7	165	80	0
7	167	81	0
7	169	82	0
7	171	83	0
7	173	84	0
7	175	85	0
7	177	86	0
7	179	87	0
7	181	88	0
7	183	89	0
7	185	90	0
7	187	91	0
7	189	92	0
7	191	93	0
7	193	94	0
7	195	95	0
7	197	96	0
7	199	97	0
7	201	98	0
7	203	99	0
7	205	100	0
6	12	6	76.65
6	15	7	76.65
6	19	8	76.65
6	23	9	76.65
6	25	10	76.65
6	27	11	76.65
6	29	12	76.65
6	31	13	76.65
6	33	14	76.65
6	35	15	76.65
6	37	16	76.65
6	39	17	76.65
6	41	18	76.65
6	43	19	76.65
6	45	20	76.65
6	47	21	76.65
6	49	22	76.65
6	51	23	76.65
6	53	24	76.65
6	55	25	76.65
6	57	26	76.65
6	59	27	76.65
6	61	28	76.65
6	63	29	76.65
6	65	30	76.65
6	67	31	76.65
6	69	32	76.65
6	71	33	76.65
6	73	34	76.65
6	75	35	76.65
6	77	36	76.65
6	79	37	76.65
6	81	38	76.65
6	83	39	76.65
6	85	40	76.65
6	87	41	76.65
6	89	42	76.65
6	91	43	76.65
6	93	44	76.65
6	95	45	76.65
6	97	46	76.65
6	99	47	76.65
6	101	48	76.65
6	103	49	76.65
6	105	50	76.65
6	107	51	76.65
6	109	52	76.65
6	111	53	76.65
6	113	54	76.65
6	115	55	76.65
6	117	56	76.65
6	119	57	76.65
6	121	58	76.65
6	123	59	76.65
6	125	60	76.65
6	127	61	76.65
6	129	62	76.65
6	131	63	76.65
6	133	64	76.65
6	135	65	76.65
6	137	66	76.65
6	139	67	76.65
6	141	68	76.65
6	143	69	76.65
6	145	70	76.65
6	147	71	76.65
6	149	72	76.65
6	151	73	76.65
6	153	74	76.65
6	155	75	76.65
6	157	76	76.65
6	159	77	76.65
6	161	78	76.65
6	163	79	76.65
6	165	80	76.65
6	167	81	76.65
6	169	82	76.65
6	171	83	76.65
6	173	84	76.65
6	175	85	76.65
6	177	86	76.65
6	179	87	76.65
6	181	88	76.65
6	183	89	76.65
6	185	90	76.65
6	187	91	76.65
6	189	92	76.65
6	191	93	76.65
6	193	94	76.65
6	195	95	76.65
6	197	96	76.65
6	199	97	76.65
6	201	98	76.65
6	203	99	76.65
6	205	100	76.65
5	12	6	27.6
5	15	7	27.6
5	19	8	56.209053899346
5	23	9	83.918979214035
5	25	10	112.07695902481
5	27	11	140.37929554653
5	29	12	168.23390682625
5	31	13	196.67560311436
5	33	14	225.74863366933
5	35	15	253.77912245822
5	37	16	281.84946621636
5	39	17	301.24606775825
5	41	18	311.24481774329
5	43	19	313.51703510795
5	45	20	314.08283582962
5	47	21	314.19368302623
5	49	22	314.24601138644
5	51	23	314.24716741738
5	53	24	314.24772931838
5	55	25	314.24795676564
5	57	26	314.24795676564
5	59	27	314.24795676564
5	61	28	314.24795676564
5	63	29	314.24795676564
5	65	30	314.24795676564
5	67	31	314.24795676564
5	69	32	314.24795676564
5	71	33	314.24795676564
5	73	34	314.24795676564
5	75	35	314.24795676564
5	77	36	314.24795676564
5	79	37	314.24795676564
5	81	38	314.24795676564
5	83	39	314.24795676564
5	85	40	314.24795676564
5	87	41	314.24795676564
5	89	42	314.24795676564
5	91	43	314.24795676564
5	93	44	314.24795676564
5	95	45	314.24795676564
5	97	46	314.24795676564
5	99	47	314.24795676564
5	101	48	314.24795676564
5	103	49	314.24795676564
5	105	50	314.24795676564
5	107	51	314.24795676564
5	109	52	314.24795676564
5	111	53	314.24795676564
5	113	54	314.24795676564
5	115	55	314.24795676564
5	117	56	314.24795676564
5	119	57	314.24795676564
5	121	58	314.24795676564
5	123	59	314.24795676564
5	125	60	314.24795676564
5	127	61	314.24795676564
5	129	62	314.24795676564
5	131	63	314.24795676564
5	133	64	314.24795676564
5	135	65	314.24795676564
5	137	66	314.24795676564
5	139	67	314.24795676564
5	141	68	314.24795676564
5	143	69	314.24795676564
5	145	70	314.24795676564
5	147	71	314.24795676564
5	149	72	314.24795676564
5	151	73	314.24795676564
5	153	74	314.24795676564
5	155	75	314.24795676564
5	157	76	314.24795676564
5	159	77	314.24795676564
5	161	78	314.24795676564
5	163	79	314.24795676564
5	165	80	314.24795676564
5	167	81	314.24795676564
5	169	82	314.24795676564
5	171	83	314.24795676564
5	173	84	314.24795676564
5	175	85	314.24795676564
5	177	86	314.24795676564
5	179	87	314.24795676564
5	181	88	314.24795676564
5	183	89	314.24795676564
5	185	90	314.24795676564
5	187	91	314.24795676564
5	189	92	314.24795676564
5	191	93	314.24795676564
5	193	94	314.24795676564
5	195	95	314.24795676564
5	197	96	314.24795676564
5	199	97	314.24795676564
5	201	98	314.24795676564
5	203	99	314.24795676564
5	205	100	314.24795676564
14	31	13	0.973
14	33	14	4.3729879805779
14	35	15	8.8381248682011
14	37	16	6.1443901092633
14	39	17	0.15586116913647
14	41	18	6.3080158955641
14	43	19	8.8384403009795
14	45	20	1.9146964485542
14	47	21	0.973
14	49	22	0.973
14	51	23	0.973
14	53	24	0.973
14	55	25	0.973
14	57	26	1.1107632844789
14	59	27	1.1101231793314
14	61	28	1.1100777365246
14	63	29	1.1100134470301
14	65	30	0.973
14	67	31	1.1100069058907
14	69	32	0.973
14	71	33	0.973
14	73	34	0.973
14	75	35	0.973
14	77	36	0.973
14	79	37	0.973
14	81	38	0.973
14	83	39	0.973
14	85	40	0.973
14	87	41	0.973
14	89	42	0.973
14	91	43	0.973
14	93	44	0.973
14	95	45	0.973
14	97	46	0.973
14	99	47	0.973
14	101	48	0.973
14	103	49	0.973
14	105	50	0.973
14	107	51	0.973
14	109	52	0.973
14	111	53	0.973
14	113	54	0.973
14	115	55	0.973
14	117	56	0.973
14	119	57	0.973
14	121	58	0.973
14	123	59	0.973
14	125	60	0.973
14	127	61	0.973
14	129	62	0.973
14	131	63	0.973
14	133	64	0.973
14	135	65	0.973
14	137	66	0.973
14	139	67	0.973
14	141	68	0.973
14	143	69	0.973
14	145	70	0.973
14	147	71	0.973
14	149	72	0.973
14	151	73	0.973
14	153	74	0.973
14	155	75	0.973
14	157	76	0.973
14	159	77	0.973
14	161	78	0.973
14	163	79	0.973
14	165	80	0.973
14	167	81	0.973
14	169	82	0.973
14	171	83	0.973
14	173	84	0.973
14	175	85	0.973
14	177	86	0.973
14	179	87	0.973
14	181	88	0.973
14	183	89	0.973
14	185	90	0.973
14	187	91	0.973
14	189	92	0.973
14	191	93	0.973
14	193	94	0.973
14	195	95	0.973
14	197	96	0.973
14	199	97	0.973
14	201	98	0.973
14	203	99	0.973
14	205	100	0.973
13	31	13	-1.0121632965747
13	33	14	0.014476087060757
13	35	15	0.6544062285684
13	37	16	0.24133810924832
13	39	17	-0.63323444430716
13	41	18	0.28271973493975
13	43	19	0.62254243553616
13	45	20	-0.38079625507817
13	47	21	-8.5923555620309
13	49	22	-8.9722043103237
13	51	23	-8.7777298159208
13	53	24	-1.4535598098792
13	55	25	-0.14914846562435
13	57	26	-0.013217273006122
13	59	27	-0.014192955401766
13	61	28	-0.0011277582671416
13	63	29	-0.0013399529092577
13	65	30	-0.00028063130189585
13	67	31	0.00014305469924084
13	69	32	-0.00014305469924084
13	71	33	0
13	73	34	0
13	75	35	0
13	77	36	0
13	79	37	0
13	81	38	0
13	83	39	0
13	85	40	0
13	87	41	0
13	89	42	0
13	91	43	0
13	93	44	0
13	95	45	0
13	97	46	0
13	99	47	0
13	101	48	0
13	103	49	0
13	105	50	0
13	107	51	0
13	109	52	0
13	111	53	0
13	113	54	0
13	115	55	0
13	117	56	0
13	119	57	0
13	121	58	0
13	123	59	0
13	125	60	0
13	127	61	0
13	129	62	0
13	131	63	0
13	133	64	0
13	135	65	0
13	137	66	0
13	139	67	0
13	141	68	0
13	143	69	0
13	145	70	0
13	147	71	0
13	149	72	0
13	151	73	0
13	153	74	0
13	155	75	0
13	157	76	0
13	159	77	0
13	161	78	0
13	163	79	0
13	165	80	0
13	167	81	0
13	169	82	0
13	171	83	0
13	173	84	0
13	175	85	0
13	177	86	0
13	179	87	0
13	181	88	0
13	183	89	0
13	185	90	0
13	187	91	0
13	189	92	0
13	191	93	0
13	193	94	0
13	195	95	0
13	197	96	0
13	199	97	0
13	201	98	0
13	203	99	0
13	205	100	0
12	29	12	28.185867935272
12	31	13	27.173704638697
12	33	14	27.188180725758
12	35	15	27.842586954326
12	37	16	28.083925063575
12	39	17	27.450690619267
12	41	18	27.733410354207
12	43	19	28.355952789743
12	45	20	27.975156534665
12	47	21	19.382800972634
12	49	22	10.410596662311
12	51	23	1.6328668463898
12	53	24	0.17930703651053
12	55	25	0.030158570886183
12	57	26	0.016941297880061
12	59	27	0.0027483424782952
12	61	28	0.0016205842111536
12	63	29	0.00028063130189585
12	65	30	0
12	67	31	0.00014305469924084
12	69	32	0
12	71	33	0
12	73	34	0
12	75	35	0
12	77	36	0
12	79	37	0
12	81	38	0
12	83	39	0
12	85	40	0
12	87	41	0
12	89	42	0
12	91	43	0
12	93	44	0
12	95	45	0
12	97	46	0
12	99	47	0
12	101	48	0
12	103	49	0
12	105	50	0
12	107	51	0
12	109	52	0
12	111	53	0
12	113	54	0
12	115	55	0
12	117	56	0
12	119	57	0
12	121	58	0
12	123	59	0
12	125	60	0
12	127	61	0
12	129	62	0
12	131	63	0
12	133	64	0
12	135	65	0
12	137	66	0
12	139	67	0
12	141	68	0
12	143	69	0
12	145	70	0
12	147	71	0
12	149	72	0
12	151	73	0
12	153	74	0
12	155	75	0
12	157	76	0
12	159	77	0
12	161	78	0
12	163	79	0
12	165	80	0
12	167	81	0
12	169	82	0
12	171	83	0
12	173	84	0
12	175	85	0
12	177	86	0
12	179	87	0
12	181	88	0
12	183	89	0
12	185	90	0
12	187	91	0
12	189	92	0
12	191	93	0
12	193	94	0
12	195	95	0
12	197	96	0
12	199	97	0
12	201	98	0
12	203	99	0
12	205	100	0
11	27	11	76.65
11	29	12	76.65
11	31	13	76.65
11	33	14	76.65
11	35	15	76.65
11	37	16	76.65
11	39	17	76.65
11	41	18	76.65
11	43	19	76.65
11	45	20	76.65
11	47	21	76.65
11	49	22	76.65
11	51	23	76.65
11	53	24	76.65
11	55	25	76.65
11	57	26	76.65
11	59	27	76.65
11	61	28	76.65
11	63	29	76.65
11	65	30	76.65
11	67	31	76.65
11	69	32	76.65
11	71	33	76.65
11	73	34	76.65
11	75	35	76.65
11	77	36	76.65
11	79	37	76.65
11	81	38	76.65
11	83	39	76.65
11	85	40	76.65
11	87	41	76.65
11	89	42	76.65
11	91	43	76.65
11	93	44	76.65
11	95	45	76.65
11	97	46	76.65
11	99	47	76.65
11	101	48	76.65
11	103	49	76.65
11	105	50	76.65
11	107	51	76.65
11	109	52	76.65
11	111	53	76.65
11	113	54	76.65
11	115	55	76.65
11	117	56	76.65
11	119	57	76.65
11	121	58	76.65
11	123	59	76.65
11	125	60	76.65
11	127	61	76.65
11	129	62	76.65
11	131	63	76.65
11	133	64	76.65
11	135	65	76.65
11	137	66	76.65
11	139	67	76.65
11	141	68	76.65
11	143	69	76.65
11	145	70	76.65
11	147	71	76.65
11	149	72	76.65
11	151	73	76.65
11	153	74	76.65
11	155	75	76.65
11	157	76	76.65
11	159	77	76.65
11	161	78	76.65
11	163	79	76.65
11	165	80	76.65
11	167	81	76.65
11	169	82	76.65
11	171	83	76.65
11	173	84	76.65
11	175	85	76.65
11	177	86	76.65
11	179	87	76.65
11	181	88	76.65
11	183	89	76.65
11	185	90	76.65
11	187	91	76.65
11	189	92	76.65
11	191	93	76.65
11	193	94	76.65
11	195	95	76.65
11	197	96	76.65
11	199	97	76.65
11	201	98	76.65
11	203	99	76.65
11	205	100	76.65
10	27	11	27.6
10	29	12	27.6
10	31	13	55.785867935272
10	33	14	82.959572573969
10	35	15	110.14775329973
10	37	16	137.99034025405
10	39	17	166.07426531763
10	41	18	193.52495593689
10	43	19	221.2583662911
10	45	20	249.61431908085
10	47	21	277.58947561551
10	49	22	296.97227658814
10	51	23	307.38287325046
10	53	24	309.01574009684
10	55	25	309.19504713336
10	57	26	309.22520570424
10	59	27	309.24214700212
10	61	28	309.2448953446
10	63	29	309.24651592881
10	65	30	309.24679656011
10	67	31	309.24679656011
10	69	32	309.24693961481
10	71	33	309.24693961481
10	73	34	309.24693961481
10	75	35	309.24693961481
10	77	36	309.24693961481
10	79	37	309.24693961481
10	81	38	309.24693961481
10	83	39	309.24693961481
10	85	40	309.24693961481
10	87	41	309.24693961481
10	89	42	309.24693961481
10	91	43	309.24693961481
10	93	44	309.24693961481
10	95	45	309.24693961481
10	97	46	309.24693961481
10	99	47	309.24693961481
10	101	48	309.24693961481
10	103	49	309.24693961481
10	105	50	309.24693961481
10	107	51	309.24693961481
10	109	52	309.24693961481
10	111	53	309.24693961481
10	113	54	309.24693961481
10	115	55	309.24693961481
10	117	56	309.24693961481
10	119	57	309.24693961481
10	121	58	309.24693961481
10	123	59	309.24693961481
10	125	60	309.24693961481
10	127	61	309.24693961481
10	129	62	309.24693961481
10	131	63	309.24693961481
10	133	64	309.24693961481
10	135	65	309.24693961481
10	137	66	309.24693961481
10	139	67	309.24693961481
10	141	68	309.24693961481
10	143	69	309.24693961481
10	145	70	309.24693961481
10	147	71	309.24693961481
10	149	72	309.24693961481
10	151	73	309.24693961481
10	153	74	309.24693961481
10	155	75	309.24693961481
10	157	76	309.24693961481
10	159	77	309.24693961481
10	161	78	309.24693961481
10	163	79	309.24693961481
10	165	80	309.24693961481
10	167	81	309.24693961481
10	169	82	309.24693961481
10	171	83	309.24693961481
10	173	84	309.24693961481
10	175	85	309.24693961481
10	177	86	309.24693961481
10	179	87	309.24693961481
10	181	88	309.24693961481
10	183	89	309.24693961481
10	185	90	309.24693961481
10	187	91	309.24693961481
10	189	92	309.24693961481
10	191	93	309.24693961481
10	193	94	309.24693961481
10	195	95	309.24693961481
10	197	96	309.24693961481
10	199	97	309.24693961481
10	201	98	309.24693961481
10	203	99	309.24693961481
10	205	100	309.24693961481
19	41	18	0.973
19	43	19	8.7656023505817
19	45	20	2.8067614496698
19	47	21	2.4722530214755
19	49	22	6.1995125269225
19	51	23	5.1887010820362
19	53	24	0.57091125970782
19	55	25	11.87411174321
19	57	26	0.973
19	59	27	0.973
19	61	28	0.973
19	63	29	0.973
19	65	30	1.1100242654042
19	67	31	1.1100146193485
19	69	32	1.1100070199749
19	71	33	0.973
19	73	34	0.973
19	75	35	0.973
19	77	36	0.973
19	79	37	0.973
19	81	38	0.973
19	83	39	0.973
19	85	40	0.973
19	87	41	0.973
19	89	42	0.973
19	91	43	0.973
19	93	44	0.973
19	95	45	0.973
19	97	46	0.973
19	99	47	0.973
19	101	48	0.973
19	103	49	0.973
19	105	50	0.973
19	107	51	0.973
19	109	52	0.973
19	111	53	0.973
19	113	54	0.973
19	115	55	0.973
19	117	56	0.973
19	119	57	0.973
19	121	58	0.973
19	123	59	0.973
19	125	60	0.973
19	127	61	0.973
19	129	62	0.973
19	131	63	0.973
19	133	64	0.973
19	135	65	0.973
19	137	66	0.973
19	139	67	0.973
19	141	68	0.973
19	143	69	0.973
19	145	70	0.973
19	147	71	0.973
19	149	72	0.973
19	151	73	0.973
19	153	74	0.973
19	155	75	0.973
19	157	76	0.973
19	159	77	0.973
19	161	78	0.973
19	163	79	0.973
19	165	80	0.973
19	167	81	0.973
19	169	82	0.973
19	171	83	0.973
19	173	84	0.973
19	175	85	0.973
19	177	86	0.973
19	179	87	0.973
19	181	88	0.973
19	183	89	0.973
19	185	90	0.973
19	187	91	0.973
19	189	92	0.973
19	191	93	0.973
19	193	94	0.973
19	195	95	0.973
19	197	96	0.973
19	199	97	0.973
19	201	98	0.973
19	203	99	0.973
19	205	100	0.973
18	41	18	-1.0027814763598
18	43	19	0.6573272900423
18	45	20	-0.23075939028058
18	47	21	-0.27363085106481
18	49	22	0.28272506373469
18	51	23	0.12425474915653
18	53	24	-0.56181455100887
18	55	25	1.0902286822675
18	57	26	-8.6155558883406
18	59	27	-9.5175490355088
18	61	28	-9.6649806995665
18	63	29	-0.24080195749312
18	65	30	-0.014718275655653
18	67	31	-0.00023951893992612
18	69	32	-0.0001577808919491
18	71	33	-0.00014563666532833
18	73	34	0
18	75	35	0
18	77	36	0
18	79	37	0
18	81	38	0
18	83	39	0
18	85	40	0
18	87	41	0
18	89	42	0
18	91	43	0
18	93	44	0
18	95	45	0
18	97	46	0
18	99	47	0
18	101	48	0
18	103	49	0
18	105	50	0
18	107	51	0
18	109	52	0
18	111	53	0
18	113	54	0
18	115	55	0
18	117	56	0
18	119	57	0
18	121	58	0
18	123	59	0
18	125	60	0
18	127	61	0
18	129	62	0
18	131	63	0
18	133	64	0
18	135	65	0
18	137	66	0
18	139	67	0
18	141	68	0
18	143	69	0
18	145	70	0
18	147	71	0
18	149	72	0
18	151	73	0
18	153	74	0
18	155	75	0
18	157	76	0
18	159	77	0
18	161	78	0
18	163	79	0
18	165	80	0
18	167	81	0
18	169	82	0
18	171	83	0
18	173	84	0
18	175	85	0
18	177	86	0
18	179	87	0
18	181	88	0
18	183	89	0
18	185	90	0
18	187	91	0
18	189	92	0
18	191	93	0
18	193	94	0
18	195	95	0
18	197	96	0
18	199	97	0
18	201	98	0
18	203	99	0
18	205	100	0
17	39	17	27.968599276575
17	41	18	26.965817800215
17	43	19	27.623145090257
17	45	20	27.392385699977
17	47	21	27.118754848912
17	49	22	27.401479912647
17	51	23	27.525734661803
17	53	24	26.963920110794
17	55	25	28.054148793062
17	57	26	19.438592904721
17	59	27	9.9210438692125
17	61	28	0.25606316964598
17	63	29	0.015261212152857
17	65	30	0.00054293649720356
17	67	31	0.00030341755727743
17	69	32	0.00014563666532833
17	71	33	0
17	73	34	0
17	75	35	0
17	77	36	0
17	79	37	0
17	81	38	0
17	83	39	0
17	85	40	0
17	87	41	0
17	89	42	0
17	91	43	0
17	93	44	0
17	95	45	0
17	97	46	0
17	99	47	0
17	101	48	0
17	103	49	0
17	105	50	0
17	107	51	0
17	109	52	0
17	111	53	0
17	113	54	0
17	115	55	0
17	117	56	0
17	119	57	0
17	121	58	0
17	123	59	0
17	125	60	0
17	127	61	0
17	129	62	0
17	131	63	0
17	133	64	0
17	135	65	0
17	137	66	0
17	139	67	0
17	141	68	0
17	143	69	0
17	145	70	0
17	147	71	0
17	149	72	0
17	151	73	0
17	153	74	0
17	155	75	0
17	157	76	0
17	159	77	0
17	161	78	0
17	163	79	0
17	165	80	0
17	167	81	0
17	169	82	0
17	171	83	0
17	173	84	0
17	175	85	0
17	177	86	0
17	179	87	0
17	181	88	0
17	183	89	0
17	185	90	0
17	187	91	0
17	189	92	0
17	191	93	0
17	193	94	0
17	195	95	0
17	197	96	0
17	199	97	0
17	201	98	0
17	203	99	0
17	205	100	0
16	37	16	76.65
16	39	17	76.65
16	41	18	76.65
16	43	19	76.65
16	45	20	76.65
16	47	21	76.65
16	49	22	76.65
16	51	23	76.65
16	53	24	76.65
16	55	25	76.65
16	57	26	76.65
16	59	27	76.65
16	61	28	76.65
16	63	29	76.65
16	65	30	76.65
16	67	31	76.65
16	69	32	76.65
16	71	33	76.65
16	73	34	76.65
16	75	35	76.65
16	77	36	76.65
16	79	37	76.65
16	81	38	76.65
16	83	39	76.65
16	85	40	76.65
16	87	41	76.65
16	89	42	76.65
16	91	43	76.65
16	93	44	76.65
16	95	45	76.65
16	97	46	76.65
16	99	47	76.65
16	101	48	76.65
16	103	49	76.65
16	105	50	76.65
16	107	51	76.65
16	109	52	76.65
16	111	53	76.65
16	113	54	76.65
16	115	55	76.65
16	117	56	76.65
16	119	57	76.65
16	121	58	76.65
16	123	59	76.65
16	125	60	76.65
16	127	61	76.65
16	129	62	76.65
16	131	63	76.65
16	133	64	76.65
16	135	65	76.65
16	137	66	76.65
16	139	67	76.65
16	141	68	76.65
16	143	69	76.65
16	145	70	76.65
16	147	71	76.65
16	149	72	76.65
16	151	73	76.65
16	153	74	76.65
16	155	75	76.65
16	157	76	76.65
16	159	77	76.65
16	161	78	76.65
16	163	79	76.65
16	165	80	76.65
16	167	81	76.65
16	169	82	76.65
16	171	83	76.65
16	173	84	76.65
16	175	85	76.65
16	177	86	76.65
16	179	87	76.65
16	181	88	76.65
16	183	89	76.65
16	185	90	76.65
16	187	91	76.65
16	189	92	76.65
16	191	93	76.65
16	193	94	76.65
16	195	95	76.65
16	197	96	76.65
16	199	97	76.65
16	201	98	76.65
16	203	99	76.65
16	205	100	76.65
15	37	16	27.6
15	39	17	27.6
15	41	18	55.568599276575
15	43	19	82.53441707679
15	45	20	110.15756216705
15	47	21	137.54994786702
15	49	22	164.66870271594
15	51	23	192.07018262858
15	53	24	219.59591729039
15	55	25	246.55983740118
15	57	26	274.61398619424
15	59	27	294.05257909896
15	61	28	303.97362296818
15	63	29	304.22968613782
15	65	30	304.24494734998
15	67	31	304.24549028647
15	69	32	304.24579370403
15	71	33	304.24593934069
15	73	34	304.24593934069
15	75	35	304.24593934069
15	77	36	304.24593934069
15	79	37	304.24593934069
15	81	38	304.24593934069
15	83	39	304.24593934069
15	85	40	304.24593934069
15	87	41	304.24593934069
15	89	42	304.24593934069
15	91	43	304.24593934069
15	93	44	304.24593934069
15	95	45	304.24593934069
15	97	46	304.24593934069
15	99	47	304.24593934069
15	101	48	304.24593934069
15	103	49	304.24593934069
15	105	50	304.24593934069
15	107	51	304.24593934069
15	109	52	304.24593934069
15	111	53	304.24593934069
15	113	54	304.24593934069
15	115	55	304.24593934069
15	117	56	304.24593934069
15	119	57	304.24593934069
15	121	58	304.24593934069
15	123	59	304.24593934069
15	125	60	304.24593934069
15	127	61	304.24593934069
15	129	62	304.24593934069
15	131	63	304.24593934069
15	133	64	304.24593934069
15	135	65	304.24593934069
15	137	66	304.24593934069
15	139	67	304.24593934069
15	141	68	304.24593934069
15	143	69	304.24593934069
15	145	70	304.24593934069
15	147	71	304.24593934069
15	149	72	304.24593934069
15	151	73	304.24593934069
15	153	74	304.24593934069
15	155	75	304.24593934069
15	157	76	304.24593934069
15	159	77	304.24593934069
15	161	78	304.24593934069
15	163	79	304.24593934069
15	165	80	304.24593934069
15	167	81	304.24593934069
15	169	82	304.24593934069
15	171	83	304.24593934069
15	173	84	304.24593934069
15	175	85	304.24593934069
15	177	86	304.24593934069
15	179	87	304.24593934069
15	181	88	304.24593934069
15	183	89	304.24593934069
15	185	90	304.24593934069
15	187	91	304.24593934069
15	189	92	304.24593934069
15	191	93	304.24593934069
15	193	94	304.24593934069
15	195	95	304.24593934069
15	197	96	304.24593934069
15	199	97	304.24593934069
15	201	98	304.24593934069
15	203	99	304.24593934069
15	205	100	304.24593934069
24	51	23	1.7198140054505
24	53	24	6.1081315522163
24	55	25	0.45128873086585
24	57	26	3.9248539072026
24	59	27	5.9903169423355
24	61	28	5.5287536501706
24	63	29	0.973
24	65	30	6.9005996942308
24	67	31	2.3825607217948
24	69	32	0.973
24	71	33	0.973
24	73	34	0.973
24	75	35	0.973
24	77	36	0.973
24	79	37	0.973
24	81	38	1.1104065630792
24	83	39	1.1102541143053
24	85	40	1.1100225477178
24	87	41	1.1100050391703
24	89	42	0.973
24	91	43	0.973
24	93	44	0.973
24	95	45	0.973
24	97	46	0.973
24	99	47	0.973
24	101	48	0.973
24	103	49	0.973
24	105	50	0.973
24	107	51	0.973
24	109	52	0.973
24	111	53	0.973
24	113	54	0.973
24	115	55	0.973
24	117	56	0.973
24	119	57	0.973
24	121	58	0.973
24	123	59	0.973
24	125	60	0.973
24	127	61	0.973
24	129	62	0.973
24	131	63	0.973
24	133	64	0.973
24	135	65	0.973
24	137	66	0.973
24	139	67	0.973
24	141	68	0.973
24	143	69	0.973
24	145	70	0.973
24	147	71	0.973
24	149	72	0.973
24	151	73	0.973
24	153	74	0.973
24	155	75	0.973
24	157	76	0.973
24	159	77	0.973
24	161	78	0.973
24	163	79	0.973
24	165	80	0.973
24	167	81	0.973
24	169	82	0.973
24	171	83	0.973
24	173	84	0.973
24	175	85	0.973
24	177	86	0.973
24	179	87	0.973
24	181	88	0.973
24	183	89	0.973
24	185	90	0.973
24	187	91	0.973
24	189	92	0.973
24	191	93	0.973
24	193	94	0.973
24	195	95	0.973
24	197	96	0.973
24	199	97	0.973
24	201	98	0.973
24	203	99	0.973
24	205	100	0.973
23	51	23	-0.30073112924583
23	53	24	0.45402796100825
23	55	25	-0.52526372484863
23	57	26	0.090403794078156
23	59	27	0.43355912924744
23	61	28	0.3361811946379
23	63	29	-0.91208067757543
23	65	30	0.59132538351696
23	67	31	-0.19059957785066
23	69	32	-2.5903009165765
23	71	33	-9.1459470154724
23	73	34	-9.81
23	75	35	-1.7127007390017
23	77	36	-0.19323464633827
23	79	37	-0.12448015220085
23	81	38	-0.037809927084794
23	83	39	-0.0049883004125388
23	85	40	-0.0049231469313107
23	87	41	-0.00037453675358546
23	89	42	-0.00010465623771787
23	91	43	0
23	93	44	0
23	95	45	0
23	97	46	0
23	99	47	0
23	101	48	0
23	103	49	0
23	105	50	0
23	107	51	0
23	109	52	0
23	111	53	0
23	113	54	0
23	115	55	0
23	117	56	0
23	119	57	0
23	121	58	0
23	123	59	0
23	125	60	0
23	127	61	0
23	129	62	0
23	131	63	0
23	133	64	0
23	135	65	0
23	137	66	0
23	139	67	0
23	141	68	0
23	143	69	0
23	145	70	0
23	147	71	0
23	149	72	0
23	151	73	0
23	153	74	0
23	155	75	0
23	157	76	0
23	159	77	0
23	161	78	0
23	163	79	0
23	165	80	0
23	167	81	0
23	169	82	0
23	171	83	0
23	173	84	0
23	175	85	0
23	177	86	0
23	179	87	0
23	181	88	0
23	183	89	0
23	185	90	0
23	187	91	0
23	189	92	0
23	191	93	0
23	193	94	0
23	195	95	0
23	197	96	0
23	199	97	0
23	201	98	0
23	203	99	0
23	205	100	0
22	49	22	23.648041684041
22	51	23	23.347310554796
22	53	24	23.801338515804
22	55	25	23.276074790955
22	57	26	23.366478585033
22	59	27	23.800037714281
22	61	28	24.136218908919
22	63	29	23.224138231343
22	65	30	23.81546361486
22	67	31	23.62486403701
22	69	32	21.034563120433
22	71	33	11.888616104961
22	73	34	2.0786161049608
22	75	35	0.36591536595906
22	77	36	0.1726807196208
22	79	37	0.048200567419947
22	81	38	0.010390640335153
22	83	39	0.0054023399226141
22	85	40	0.00047919299130334
22	87	41	0.00010465623771787
22	89	42	0
22	91	43	0
22	93	44	0
22	95	45	0
22	97	46	0
22	99	47	0
22	101	48	0
22	103	49	0
22	105	50	0
22	107	51	0
22	109	52	0
22	111	53	0
22	113	54	0
22	115	55	0
22	117	56	0
22	119	57	0
22	121	58	0
22	123	59	0
22	125	60	0
22	127	61	0
22	129	62	0
22	131	63	0
22	133	64	0
22	135	65	0
22	137	66	0
22	139	67	0
22	141	68	0
22	143	69	0
22	145	70	0
22	147	71	0
22	149	72	0
22	151	73	0
22	153	74	0
22	155	75	0
22	157	76	0
22	159	77	0
22	161	78	0
22	163	79	0
22	165	80	0
22	167	81	0
22	169	82	0
22	171	83	0
22	173	84	0
22	175	85	0
22	177	86	0
22	179	87	0
22	181	88	0
22	183	89	0
22	185	90	0
22	187	91	0
22	189	92	0
22	191	93	0
22	193	94	0
22	195	95	0
22	197	96	0
22	199	97	0
22	201	98	0
22	203	99	0
22	205	100	0
21	47	21	76.65
21	49	22	76.65
21	51	23	76.65
21	53	24	76.65
21	55	25	76.65
21	57	26	76.65
21	59	27	76.65
21	61	28	76.65
21	63	29	76.65
21	65	30	76.65
21	67	31	76.65
21	69	32	76.65
21	71	33	76.65
21	73	34	76.65
21	75	35	76.65
21	77	36	76.65
21	79	37	76.65
21	81	38	76.65
21	83	39	76.65
21	85	40	76.65
21	87	41	76.65
21	89	42	76.65
21	91	43	76.65
21	93	44	76.65
21	95	45	76.65
21	97	46	76.65
21	99	47	76.65
21	101	48	76.65
21	103	49	76.65
21	105	50	76.65
21	107	51	76.65
21	109	52	76.65
21	111	53	76.65
21	113	54	76.65
21	115	55	76.65
21	117	56	76.65
21	119	57	76.65
21	121	58	76.65
21	123	59	76.65
21	125	60	76.65
21	127	61	76.65
21	129	62	76.65
21	131	63	76.65
21	133	64	76.65
21	135	65	76.65
21	137	66	76.65
21	139	67	76.65
21	141	68	76.65
21	143	69	76.65
21	145	70	76.65
21	147	71	76.65
21	149	72	76.65
21	151	73	76.65
21	153	74	76.65
21	155	75	76.65
21	157	76	76.65
21	159	77	76.65
21	161	78	76.65
21	163	79	76.65
21	165	80	76.65
21	167	81	76.65
21	169	82	76.65
21	171	83	76.65
21	173	84	76.65
21	175	85	76.65
21	177	86	76.65
21	179	87	76.65
21	181	88	76.65
21	183	89	76.65
21	185	90	76.65
21	187	91	76.65
21	189	92	76.65
21	191	93	76.65
21	193	94	76.65
21	195	95	76.65
21	197	96	76.65
21	199	97	76.65
21	201	98	76.65
21	203	99	76.65
21	205	100	76.65
20	47	21	27.6
20	49	22	27.6
20	51	23	51.248041684041
20	53	24	74.595352238837
20	55	25	98.396690754641
20	57	26	121.6727655456
20	59	27	145.03924413063
20	61	28	168.83928184491
20	63	29	192.97550075383
20	65	30	216.19963898517
20	67	31	240.01510260003
20	69	32	263.63996663704
20	71	33	284.67452975748
20	73	34	296.56314586244
20	75	35	298.6417619674
20	77	36	299.00767733336
20	79	37	299.18035805298
20	81	38	299.2285586204
20	83	39	299.23894926073
20	85	40	299.24435160066
20	87	41	299.24483079365
20	89	42	299.24493544988
20	91	43	299.24493544988
20	93	44	299.24493544988
20	95	45	299.24493544988
20	97	46	299.24493544988
20	99	47	299.24493544988
20	101	48	299.24493544988
20	103	49	299.24493544988
20	105	50	299.24493544988
20	107	51	299.24493544988
20	109	52	299.24493544988
20	111	53	299.24493544988
20	113	54	299.24493544988
20	115	55	299.24493544988
20	117	56	299.24493544988
20	119	57	299.24493544988
20	121	58	299.24493544988
20	123	59	299.24493544988
20	125	60	299.24493544988
20	127	61	299.24493544988
20	129	62	299.24493544988
20	131	63	299.24493544988
20	133	64	299.24493544988
20	135	65	299.24493544988
20	137	66	299.24493544988
20	139	67	299.24493544988
20	141	68	299.24493544988
20	143	69	299.24493544988
20	145	70	299.24493544988
20	147	71	299.24493544988
20	149	72	299.24493544988
20	151	73	299.24493544988
20	153	74	299.24493544988
20	155	75	299.24493544988
20	157	76	299.24493544988
20	159	77	299.24493544988
20	161	78	299.24493544988
20	163	79	299.24493544988
20	165	80	299.24493544988
20	167	81	299.24493544988
20	169	82	299.24493544988
20	171	83	299.24493544988
20	173	84	299.24493544988
20	175	85	299.24493544988
20	177	86	299.24493544988
20	179	87	299.24493544988
20	181	88	299.24493544988
20	183	89	299.24493544988
20	185	90	299.24493544988
20	187	91	299.24493544988
20	189	92	299.24493544988
20	191	93	299.24493544988
20	193	94	299.24493544988
20	195	95	299.24493544988
20	197	96	299.24493544988
20	199	97	299.24493544988
20	201	98	299.24493544988
20	203	99	299.24493544988
20	205	100	299.24493544988
29	61	28	5.754529403278
29	63	29	4.9858038120998
29	65	30	1.031036190352
29	67	31	3.9208490831598
29	69	32	9.9739360157494
29	71	33	2.5921328459627
29	73	34	0.973
29	75	35	0.973
29	77	36	0.973
29	79	37	0.973
29	81	38	1.1160717983245
29	83	39	0.973
29	85	40	1.1122102762754
29	87	41	1.1100933981074
29	89	42	1.1100478395681
29	91	43	1.1100065165485
29	93	44	1.1100053383431
29	95	45	0.973
29	97	46	0.973
29	99	47	0.973
29	101	48	0.973
29	103	49	0.973
29	105	50	0.973
29	107	51	0.973
29	109	52	0.973
29	111	53	0.973
29	113	54	0.973
29	115	55	0.973
29	117	56	0.973
29	119	57	0.973
29	121	58	0.973
29	123	59	0.973
29	125	60	0.973
29	127	61	0.973
29	129	62	0.973
29	131	63	0.973
29	133	64	0.973
29	135	65	0.973
29	137	66	0.973
29	139	67	0.973
29	141	68	0.973
29	143	69	0.973
29	145	70	0.973
29	147	71	0.973
29	149	72	0.973
29	151	73	0.973
29	153	74	0.973
29	155	75	0.973
29	157	76	0.973
29	159	77	0.973
29	161	78	0.973
29	163	79	0.973
29	165	80	0.973
29	167	81	0.973
29	169	82	0.973
29	171	83	0.973
29	173	84	0.973
29	175	85	0.973
29	177	86	0.973
29	179	87	0.973
29	181	88	0.973
29	183	89	0.973
29	185	90	0.973
29	187	91	0.973
29	189	92	0.973
29	191	93	0.973
29	193	94	0.973
29	195	95	0.973
29	197	96	0.973
29	199	97	0.973
29	201	98	0.973
29	203	99	0.973
29	205	100	0.973
28	61	28	0.015538307838142
28	63	29	-0.081297066179104
28	65	30	-0.58373815915547
28	67	31	-0.19247061456554
28	69	32	0.58180507365614
28	71	33	-0.37649380008224
28	73	34	-7.5756423369796
28	75	35	-8.4491068971134
28	77	36	-8.2920774361961
28	79	37	-6.7008235647655
28	81	38	-0.037564259214721
28	83	39	-0.11016689238863
28	85	40	0.00085482533616055
28	87	41	-0.043155049369818
28	89	42	-0.0014692292861823
28	91	43	-0.00086336094423896
28	93	44	-2.4995187106354e-05
28	95	45	-0.00011067598976892
28	97	46	0
28	99	47	0
28	101	48	0
28	103	49	0
28	105	50	0
28	107	51	0
28	109	52	0
28	111	53	0
28	113	54	0
28	115	55	0
28	117	56	0
28	119	57	0
28	121	58	0
28	123	59	0
28	125	60	0
28	127	61	0
28	129	62	0
28	131	63	0
28	133	64	0
28	135	65	0
28	137	66	0
28	139	67	0
28	141	68	0
28	143	69	0
28	145	70	0
28	147	71	0
28	149	72	0
28	151	73	0
28	153	74	0
28	155	75	0
28	157	76	0
28	159	77	0
28	161	78	0
28	163	79	0
28	165	80	0
28	167	81	0
28	169	82	0
28	171	83	0
28	173	84	0
28	175	85	0
28	177	86	0
28	179	87	0
28	181	88	0
28	183	89	0
28	185	90	0
28	187	91	0
28	189	92	0
28	191	93	0
28	193	94	0
28	195	95	0
28	197	96	0
28	199	97	0
28	201	98	0
28	203	99	0
28	205	100	0
27	59	27	31.846806130587
27	61	28	31.862344438425
27	63	29	31.781047372246
27	65	30	31.197309213091
27	67	31	31.004838598525
27	69	32	31.586643672181
27	71	33	31.210149872099
27	73	34	23.634507535119
27	75	35	15.185400638006
27	77	36	6.8933232018098
27	79	37	0.19249963704431
27	81	38	0.15493537782958
27	83	39	0.044768485440954
27	85	40	0.045623310777114
27	87	41	0.0024682614072966
27	89	42	0.00099903212111423
27	91	43	0.00013567117687527
27	93	44	0.00011067598976892
27	95	45	0
27	97	46	0
27	99	47	0
27	101	48	0
27	103	49	0
27	105	50	0
27	107	51	0
27	109	52	0
27	111	53	0
27	113	54	0
27	115	55	0
27	117	56	0
27	119	57	0
27	121	58	0
27	123	59	0
27	125	60	0
27	127	61	0
27	129	62	0
27	131	63	0
27	133	64	0
27	135	65	0
27	137	66	0
27	139	67	0
27	141	68	0
27	143	69	0
27	145	70	0
27	147	71	0
27	149	72	0
27	151	73	0
27	153	74	0
27	155	75	0
27	157	76	0
27	159	77	0
27	161	78	0
27	163	79	0
27	165	80	0
27	167	81	0
27	169	82	0
27	171	83	0
27	173	84	0
27	175	85	0
27	177	86	0
27	179	87	0
27	181	88	0
27	183	89	0
27	185	90	0
27	187	91	0
27	189	92	0
27	191	93	0
27	193	94	0
27	195	95	0
27	197	96	0
27	199	97	0
27	201	98	0
27	203	99	0
27	205	100	0
26	57	26	76.65
26	59	27	76.65
26	61	28	76.65
26	63	29	76.65
26	65	30	76.65
26	67	31	76.65
26	69	32	76.65
26	71	33	76.65
26	73	34	76.65
26	75	35	76.65
26	77	36	76.65
26	79	37	76.65
26	81	38	76.65
26	83	39	76.65
26	85	40	76.65
26	87	41	76.65
26	89	42	76.65
26	91	43	76.65
26	93	44	76.65
26	95	45	76.65
26	97	46	76.65
26	99	47	76.65
26	101	48	76.65
26	103	49	76.65
26	105	50	76.65
26	107	51	76.65
26	109	52	76.65
26	111	53	76.65
26	113	54	76.65
26	115	55	76.65
26	117	56	76.65
26	119	57	76.65
26	121	58	76.65
26	123	59	76.65
26	125	60	76.65
26	127	61	76.65
26	129	62	76.65
26	131	63	76.65
26	133	64	76.65
26	135	65	76.65
26	137	66	76.65
26	139	67	76.65
26	141	68	76.65
26	143	69	76.65
26	145	70	76.65
26	147	71	76.65
26	149	72	76.65
26	151	73	76.65
26	153	74	76.65
26	155	75	76.65
26	157	76	76.65
26	159	77	76.65
26	161	78	76.65
26	163	79	76.65
26	165	80	76.65
26	167	81	76.65
26	169	82	76.65
26	171	83	76.65
26	173	84	76.65
26	175	85	76.65
26	177	86	76.65
26	179	87	76.65
26	181	88	76.65
26	183	89	76.65
26	185	90	76.65
26	187	91	76.65
26	189	92	76.65
26	191	93	76.65
26	193	94	76.65
26	195	95	76.65
26	197	96	76.65
26	199	97	76.65
26	201	98	76.65
26	203	99	76.65
26	205	100	76.65
25	57	26	27.6
25	59	27	27.6
25	61	28	59.446806130587
25	63	29	91.309150569012
25	65	30	123.09019794126
25	67	31	154.28750715435
25	69	32	185.29234575287
25	71	33	216.87898942505
25	73	34	248.08913929715
25	75	35	271.72364683227
25	77	36	286.90904747028
25	79	37	293.80237067209
25	81	38	293.99487030913
25	83	39	294.14980568696
25	85	40	294.1945741724
25	87	41	294.24019748318
25	89	42	294.24266574459
25	91	43	294.24366477671
25	93	44	294.24380044789
25	95	45	294.24391112388
25	97	46	294.24391112388
25	99	47	294.24391112388
25	101	48	294.24391112388
25	103	49	294.24391112388
25	105	50	294.24391112388
25	107	51	294.24391112388
25	109	52	294.24391112388
25	111	53	294.24391112388
25	113	54	294.24391112388
25	115	55	294.24391112388
25	117	56	294.24391112388
25	119	57	294.24391112388
25	121	58	294.24391112388
25	123	59	294.24391112388
25	125	60	294.24391112388
25	127	61	294.24391112388
25	129	62	294.24391112388
25	131	63	294.24391112388
25	133	64	294.24391112388
25	135	65	294.24391112388
25	137	66	294.24391112388
25	139	67	294.24391112388
25	141	68	294.24391112388
25	143	69	294.24391112388
25	145	70	294.24391112388
25	147	71	294.24391112388
25	149	72	294.24391112388
25	151	73	294.24391112388
25	153	74	294.24391112388
25	155	75	294.24391112388
25	157	76	294.24391112388
25	159	77	294.24391112388
25	161	78	294.24391112388
25	163	79	294.24391112388
25	165	80	294.24391112388
25	167	81	294.24391112388
25	169	82	294.24391112388
25	171	83	294.24391112388
25	173	84	294.24391112388
25	175	85	294.24391112388
25	177	86	294.24391112388
25	179	87	294.24391112388
25	181	88	294.24391112388
25	183	89	294.24391112388
25	185	90	294.24391112388
25	187	91	294.24391112388
25	189	92	294.24391112388
25	191	93	294.24391112388
25	193	94	294.24391112388
25	195	95	294.24391112388
25	197	96	294.24391112388
25	199	97	294.24391112388
25	201	98	294.24391112388
25	203	99	294.24391112388
25	205	100	294.24391112388
34	71	33	3.8659757209588
34	73	34	4.869130155239
34	75	35	6.6523318641192
34	77	36	4.0811594471718
34	79	37	4.973427140971
34	81	38	0.973
34	83	39	9.8094229342761
34	85	40	3.7178028998152
34	87	41	0.973
34	89	42	0.973
34	91	43	0.973
34	93	44	0.973
34	95	45	0.973
34	97	46	0.973
34	99	47	1.1100726455162
34	101	48	1.110055037338
34	103	49	1.110012370799
34	105	50	1.1100078383104
34	107	51	0.973
34	109	52	0.973
34	111	53	0.973
34	113	54	0.973
34	115	55	0.973
34	117	56	0.973
34	119	57	0.973
34	121	58	0.973
34	123	59	0.973
34	125	60	0.973
34	127	61	0.973
34	129	62	0.973
34	131	63	0.973
34	133	64	0.973
34	135	65	0.973
34	137	66	0.973
34	139	67	0.973
34	141	68	0.973
34	143	69	0.973
34	145	70	0.973
34	147	71	0.973
34	149	72	0.973
34	151	73	0.973
34	153	74	0.973
34	155	75	0.973
34	157	76	0.973
34	159	77	0.973
34	161	78	0.973
34	163	79	0.973
34	165	80	0.973
34	167	81	0.973
34	169	82	0.973
34	171	83	0.973
34	173	84	0.973
34	175	85	0.973
34	177	86	0.973
34	179	87	0.973
34	181	88	0.973
34	183	89	0.973
34	185	90	0.973
34	187	91	0.973
34	189	92	0.973
34	191	93	0.973
34	193	94	0.973
34	195	95	0.973
34	197	96	0.973
34	199	97	0.973
34	201	98	0.973
34	203	99	0.973
34	205	100	0.973
33	71	33	0.0067289869766682
33	73	34	0.16412850120105
33	75	35	0.43124269670807
33	77	36	0.018435291945934
33	79	37	0.15459434653167
33	81	38	-1.1266257794341
33	83	39	0.93837723357137
33	85	40	-0.037210209527984
33	87	41	-7.1162913234663
33	89	42	-8.3655491814713
33	91	43	-8.7279028514764
33	93	44	-1.366002769584
33	95	45	-0.13851319857979
33	97	46	-0.10439340851667
33	99	47	-0.015901459485678
33	101	48	-0.00049215600960409
33	103	49	-0.00088613569045126
33	105	50	-9.5020213062698e-05
33	107	51	-0.00016256287454056
33	109	52	0
33	111	53	0
33	113	54	0
33	115	55	0
33	117	56	0
33	119	57	0
33	121	58	0
33	123	59	0
33	125	60	0
33	127	61	0
33	129	62	0
33	131	63	0
33	133	64	0
33	135	65	0
33	137	66	0
33	139	67	0
33	141	68	0
33	143	69	0
33	145	70	0
33	147	71	0
33	149	72	0
33	151	73	0
33	153	74	0
33	155	75	0
33	157	76	0
33	159	77	0
33	161	78	0
33	163	79	0
33	165	80	0
33	167	81	0
33	169	82	0
33	171	83	0
33	173	84	0
33	175	85	0
33	177	86	0
33	179	87	0
33	181	88	0
33	183	89	0
33	185	90	0
33	187	91	0
33	189	92	0
33	191	93	0
33	193	94	0
33	195	95	0
33	197	96	0
33	199	97	0
33	201	98	0
33	203	99	0
33	205	100	0
32	69	32	25.286518999395
32	71	33	25.293247986372
32	73	34	25.457376487573
32	75	35	25.888619184281
32	77	36	25.907054476227
32	79	37	26.061648822758
32	81	38	24.935023043324
32	83	39	25.873400276896
32	85	40	25.836190067368
32	87	41	18.719898743902
32	89	42	10.35434956243
32	91	43	1.6264467109538
32	93	44	0.2604439413698
32	95	45	0.12193074279001
32	97	46	0.017537334273337
32	99	47	0.0016358747876586
32	101	48	0.0011437187780545
32	103	49	0.00025758308760326
32	105	50	0.00016256287454056
32	107	51	0
32	109	52	0
32	111	53	0
32	113	54	0
32	115	55	0
32	117	56	0
32	119	57	0
32	121	58	0
32	123	59	0
32	125	60	0
32	127	61	0
32	129	62	0
32	131	63	0
32	133	64	0
32	135	65	0
32	137	66	0
32	139	67	0
32	141	68	0
32	143	69	0
32	145	70	0
32	147	71	0
32	149	72	0
32	151	73	0
32	153	74	0
32	155	75	0
32	157	76	0
32	159	77	0
32	161	78	0
32	163	79	0
32	165	80	0
32	167	81	0
32	169	82	0
32	171	83	0
32	173	84	0
32	175	85	0
32	177	86	0
32	179	87	0
32	181	88	0
32	183	89	0
32	185	90	0
32	187	91	0
32	189	92	0
32	191	93	0
32	193	94	0
32	195	95	0
32	197	96	0
32	199	97	0
32	201	98	0
32	203	99	0
32	205	100	0
31	67	31	76.65
31	69	32	76.65
31	71	33	76.65
31	73	34	76.65
31	75	35	76.65
31	77	36	76.65
31	79	37	76.65
31	81	38	76.65
31	83	39	76.65
31	85	40	76.65
31	87	41	76.65
31	89	42	76.65
31	91	43	76.65
31	93	44	76.65
31	95	45	76.65
31	97	46	76.65
31	99	47	76.65
31	101	48	76.65
31	103	49	76.65
31	105	50	76.65
31	107	51	76.65
31	109	52	76.65
31	111	53	76.65
31	113	54	76.65
31	115	55	76.65
31	117	56	76.65
31	119	57	76.65
31	121	58	76.65
31	123	59	76.65
31	125	60	76.65
31	127	61	76.65
31	129	62	76.65
31	131	63	76.65
31	133	64	76.65
31	135	65	76.65
31	137	66	76.65
31	139	67	76.65
31	141	68	76.65
31	143	69	76.65
31	145	70	76.65
31	147	71	76.65
31	149	72	76.65
31	151	73	76.65
31	153	74	76.65
31	155	75	76.65
31	157	76	76.65
31	159	77	76.65
31	161	78	76.65
31	163	79	76.65
31	165	80	76.65
31	167	81	76.65
31	169	82	76.65
31	171	83	76.65
31	173	84	76.65
31	175	85	76.65
31	177	86	76.65
31	179	87	76.65
31	181	88	76.65
31	183	89	76.65
31	185	90	76.65
31	187	91	76.65
31	189	92	76.65
31	191	93	76.65
31	193	94	76.65
31	195	95	76.65
31	197	96	76.65
31	199	97	76.65
31	201	98	76.65
31	203	99	76.65
31	205	100	76.65
30	67	31	27.6
30	69	32	27.6
30	71	33	52.886518999395
30	73	34	78.179766985767
30	75	35	103.63714347334
30	77	36	129.52576265762
30	79	37	155.43281713385
30	81	38	181.49446595661
30	83	39	206.42948899993
30	85	40	232.30288927683
30	87	41	258.13907934419
30	89	42	276.8589780881
30	91	43	287.21332765053
30	93	44	288.83977436148
30	95	45	289.10021830285
30	97	46	289.22214904564
30	99	47	289.23968637991
30	101	48	289.2413222547
30	103	49	289.24246597348
30	105	50	289.24272355657
30	107	51	289.24288611944
30	109	52	289.24288611944
30	111	53	289.24288611944
30	113	54	289.24288611944
30	115	55	289.24288611944
30	117	56	289.24288611944
30	119	57	289.24288611944
30	121	58	289.24288611944
30	123	59	289.24288611944
30	125	60	289.24288611944
30	127	61	289.24288611944
30	129	62	289.24288611944
30	131	63	289.24288611944
30	133	64	289.24288611944
30	135	65	289.24288611944
30	137	66	289.24288611944
30	139	67	289.24288611944
30	141	68	289.24288611944
30	143	69	289.24288611944
30	145	70	289.24288611944
30	147	71	289.24288611944
30	149	72	289.24288611944
30	151	73	289.24288611944
30	153	74	289.24288611944
30	155	75	289.24288611944
30	157	76	289.24288611944
30	159	77	289.24288611944
30	161	78	289.24288611944
30	163	79	289.24288611944
30	165	80	289.24288611944
30	167	81	289.24288611944
30	169	82	289.24288611944
30	171	83	289.24288611944
30	173	84	289.24288611944
30	175	85	289.24288611944
30	177	86	289.24288611944
30	179	87	289.24288611944
30	181	88	289.24288611944
30	183	89	289.24288611944
30	185	90	289.24288611944
30	187	91	289.24288611944
30	189	92	289.24288611944
30	191	93	289.24288611944
30	193	94	289.24288611944
30	195	95	289.24288611944
30	197	96	289.24288611944
30	199	97	289.24288611944
30	201	98	289.24288611944
30	203	99	289.24288611944
30	205	100	289.24288611944
39	81	38	0.73712323631422
39	83	39	1.3896159070603
39	85	40	7.3173596862876
39	87	41	2.119478329721
39	89	42	1.9386744159695
39	91	43	4.8955871524551
39	93	44	3.3095543103842
39	95	45	0.973
39	97	46	1.9099105514865
39	99	47	4.5752731741043
39	101	48	0.973
39	103	49	0.973
39	105	50	0.973
39	107	51	0.973
39	109	52	1.1107142594534
39	111	53	1.1103005499476
39	113	54	1.1100983788885
39	115	55	1.110020592171
39	117	56	1.1100143159069
39	119	57	0.973
39	121	58	0.973
39	123	59	0.973
39	125	60	0.973
39	127	61	0.973
39	129	62	0.973
39	131	63	0.973
39	133	64	0.973
39	135	65	0.973
39	137	66	0.973
39	139	67	0.973
39	141	68	0.973
39	143	69	0.973
39	145	70	0.973
39	147	71	0.973
39	149	72	0.973
39	151	73	0.973
39	153	74	0.973
39	155	75	0.973
39	157	76	0.973
39	159	77	0.973
39	161	78	0.973
39	163	79	0.973
39	165	80	0.973
39	167	81	0.973
39	169	82	0.973
39	171	83	0.973
39	173	84	0.973
39	175	85	0.973
39	177	86	0.973
39	179	87	0.973
39	181	88	0.973
39	183	89	0.973
39	185	90	0.973
39	187	91	0.973
39	189	92	0.973
39	191	93	0.973
39	193	94	0.973
39	195	95	0.973
39	197	96	0.973
39	199	97	0.973
39	201	98	0.973
39	203	99	0.973
39	205	100	0.973
38	81	38	-0.43818811245728
38	83	39	-0.3013278124854
38	85	40	0.84511111630127
38	87	41	-0.16961397102568
38	89	42	-0.20055549102835
38	91	43	0.37030611606315
38	93	44	0.05726610228885
38	95	45	-0.57725403900258
38	97	46	-0.19808275694959
38	99	47	0.32660344499163
38	101	48	-2.4448193718874
38	103	49	-9.81
38	105	50	-8.0142401299451
38	107	51	-0.44435939695973
38	109	52	-0.041091249700738
38	111	53	-0.012003303542678
38	113	54	-0.0045410466513692
38	115	55	-0.0016562723247962
38	117	56	-0.00013346856282103
38	119	57	-0.0002969622503194
38	121	58	0
38	123	59	0
38	125	60	0
38	127	61	0
38	129	62	0
38	131	63	0
38	133	64	0
38	135	65	0
38	137	66	0
38	139	67	0
38	141	68	0
38	143	69	0
38	145	70	0
38	147	71	0
38	149	72	0
38	151	73	0
38	153	74	0
38	155	75	0
38	157	76	0
38	159	77	0
38	161	78	0
38	163	79	0
38	165	80	0
38	167	81	0
38	169	82	0
38	171	83	0
38	173	84	0
38	175	85	0
38	177	86	0
38	179	87	0
38	181	88	0
38	183	89	0
38	185	90	0
38	187	91	0
38	189	92	0
38	191	93	0
38	193	94	0
38	195	95	0
38	197	96	0
38	199	97	0
38	201	98	0
38	203	99	0
38	205	100	0
37	79	37	21.058876605129
37	81	38	20.620688492672
37	83	39	20.319360680186
37	85	40	21.164471796487
37	87	41	20.994857825462
37	89	42	20.794302334433
37	91	43	21.164608450497
37	93	44	21.221874552785
37	95	45	20.644620513783
37	97	46	20.446537756833
37	99	47	20.773141201825
37	101	48	18.328321829938
37	103	49	8.5183218299375
37	105	50	0.50408169999245
37	107	51	0.059722303032722
37	109	52	0.018631053331984
37	111	53	0.0066277497893058
37	113	54	0.0020867031379366
37	115	55	0.00043043081314043
37	117	56	0.0002969622503194
37	119	57	0
37	121	58	0
37	123	59	0
37	125	60	0
37	127	61	0
37	129	62	0
37	131	63	0
37	133	64	0
37	135	65	0
37	137	66	0
37	139	67	0
37	141	68	0
37	143	69	0
37	145	70	0
37	147	71	0
37	149	72	0
37	151	73	0
37	153	74	0
37	155	75	0
37	157	76	0
37	159	77	0
37	161	78	0
37	163	79	0
37	165	80	0
37	167	81	0
37	169	82	0
37	171	83	0
37	173	84	0
37	175	85	0
37	177	86	0
37	179	87	0
37	181	88	0
37	183	89	0
37	185	90	0
37	187	91	0
37	189	92	0
37	191	93	0
37	193	94	0
37	195	95	0
37	197	96	0
37	199	97	0
37	201	98	0
37	203	99	0
37	205	100	0
36	77	36	76.65
36	79	37	76.65
36	81	38	76.65
36	83	39	76.65
36	85	40	76.65
36	87	41	76.65
36	89	42	76.65
36	91	43	76.65
36	93	44	76.65
36	95	45	76.65
36	97	46	76.65
36	99	47	76.65
36	101	48	76.65
36	103	49	76.65
36	105	50	76.65
36	107	51	76.65
36	109	52	76.65
36	111	53	76.65
36	113	54	76.65
36	115	55	76.65
36	117	56	76.65
36	119	57	76.65
36	121	58	76.65
36	123	59	76.65
36	125	60	76.65
36	127	61	76.65
36	129	62	76.65
36	131	63	76.65
36	133	64	76.65
36	135	65	76.65
36	137	66	76.65
36	139	67	76.65
36	141	68	76.65
36	143	69	76.65
36	145	70	76.65
36	147	71	76.65
36	149	72	76.65
36	151	73	76.65
36	153	74	76.65
36	155	75	76.65
36	157	76	76.65
36	159	77	76.65
36	161	78	76.65
36	163	79	76.65
36	165	80	76.65
36	167	81	76.65
36	169	82	76.65
36	171	83	76.65
36	173	84	76.65
36	175	85	76.65
36	177	86	76.65
36	179	87	76.65
36	181	88	76.65
36	183	89	76.65
36	185	90	76.65
36	187	91	76.65
36	189	92	76.65
36	191	93	76.65
36	193	94	76.65
36	195	95	76.65
36	197	96	76.65
36	199	97	76.65
36	201	98	76.65
36	203	99	76.65
36	205	100	76.65
35	77	36	27.6
35	79	37	27.6
35	81	38	48.658876605129
35	83	39	69.2795650978
35	85	40	89.598925777987
35	87	41	110.76339757447
35	89	42	131.75825539994
35	91	43	152.55255773437
35	93	44	173.71716618487
35	95	45	194.93904073765
35	97	46	215.58366125143
35	99	47	236.03019900827
35	101	48	256.80334021009
35	103	49	275.13166204003
35	105	50	283.64998386997
35	107	51	284.15406556996
35	109	52	284.21378787299
35	111	53	284.23241892632
35	113	54	284.23904667611
35	115	55	284.24113337925
35	117	56	284.24156381006
35	119	57	284.24186077232
35	121	58	284.24186077232
35	123	59	284.24186077232
35	125	60	284.24186077232
35	127	61	284.24186077232
35	129	62	284.24186077232
35	131	63	284.24186077232
35	133	64	284.24186077232
35	135	65	284.24186077232
35	137	66	284.24186077232
35	139	67	284.24186077232
35	141	68	284.24186077232
35	143	69	284.24186077232
35	145	70	284.24186077232
35	147	71	284.24186077232
35	149	72	284.24186077232
35	151	73	284.24186077232
35	153	74	284.24186077232
35	155	75	284.24186077232
35	157	76	284.24186077232
35	159	77	284.24186077232
35	161	78	284.24186077232
35	163	79	284.24186077232
35	165	80	284.24186077232
35	167	81	284.24186077232
35	169	82	284.24186077232
35	171	83	284.24186077232
35	173	84	284.24186077232
35	175	85	284.24186077232
35	177	86	284.24186077232
35	179	87	284.24186077232
35	181	88	284.24186077232
35	183	89	284.24186077232
35	185	90	284.24186077232
35	187	91	284.24186077232
35	189	92	284.24186077232
35	191	93	284.24186077232
35	193	94	284.24186077232
35	195	95	284.24186077232
35	197	96	284.24186077232
35	199	97	284.24186077232
35	201	98	284.24186077232
35	203	99	284.24186077232
35	205	100	284.24186077232
44	91	43	6.1374001617388
44	93	44	3.6762054318944
44	95	45	6.0341875913163
44	97	46	2.6093679010173
44	99	47	0.973
44	101	48	9.0662131405596
44	103	49	0.973
44	105	50	0.973
44	107	51	0.973
44	109	52	0.973
44	111	53	0.973
44	113	54	0.973
44	115	55	1.1102516760197
44	117	56	1.1101193654927
44	119	57	1.110072152841
44	121	58	0.973
44	123	59	0.973
44	125	60	0.973
44	127	61	0.973
44	129	62	0.973
44	131	63	0.973
44	133	64	0.973
44	135	65	0.973
44	137	66	0.973
44	139	67	0.973
44	141	68	0.973
44	143	69	0.973
44	145	70	0.973
44	147	71	0.973
44	149	72	0.973
44	151	73	0.973
44	153	74	0.973
44	155	75	0.973
44	157	76	0.973
44	159	77	0.973
44	161	78	0.973
44	163	79	0.973
44	165	80	0.973
44	167	81	0.973
44	169	82	0.973
44	171	83	0.973
44	173	84	0.973
44	175	85	0.973
44	177	86	0.973
44	179	87	0.973
44	181	88	0.973
44	183	89	0.973
44	185	90	0.973
44	187	91	0.973
44	189	92	0.973
44	191	93	0.973
44	193	94	0.973
44	195	95	0.973
44	197	96	0.973
44	199	97	0.973
44	201	98	0.973
44	203	99	0.973
44	205	100	0.973
43	91	43	0.19699452503119
43	93	44	-0.14997472520918
43	95	45	0.1807910297066
43	97	46	-0.29991266538855
43	99	47	-0.92771272128448
43	101	48	0.65003760822583
43	103	49	-2.6784599071262
43	105	50	-8.8041988485516
43	107	51	-9.5035993270065
43	109	52	-6.9207405434643
43	111	53	-0.32848235051751
43	113	54	-0.1797892702133
43	115	55	-0.027696276726869
43	117	56	-0.0035360622759005
43	119	57	-0.001015574104516
43	121	58	-0.0015033330534892
43	123	59	0
43	125	60	0
43	127	61	0
43	129	62	0
43	131	63	0
43	133	64	0
43	135	65	0
43	137	66	0
43	139	67	0
43	141	68	0
43	143	69	0
43	145	70	0
43	147	71	0
43	149	72	0
43	151	73	0
43	153	74	0
43	155	75	0
43	157	76	0
43	159	77	0
43	161	78	0
43	163	79	0
43	165	80	0
43	167	81	0
43	169	82	0
43	171	83	0
43	173	84	0
43	175	85	0
43	177	86	0
43	179	87	0
43	181	88	0
43	183	89	0
43	185	90	0
43	187	91	0
43	189	92	0
43	191	93	0
43	193	94	0
43	195	95	0
43	197	96	0
43	199	97	0
43	201	98	0
43	203	99	0
43	205	100	0
42	89	42	28.798798441959
42	91	43	28.99579296699
42	93	44	28.845818241781
42	95	45	29.026609271487
42	97	46	28.726696606099
42	99	47	27.798983884814
42	101	48	28.44902149304
42	103	49	25.770561585914
42	105	50	16.966362737362
42	107	51	7.4627634103559
42	109	52	0.54202286689158
42	111	53	0.21354051637407
42	113	54	0.033751246160775
42	115	55	0.0060549694339057
42	117	56	0.0025189071580052
42	119	57	0.0015033330534892
42	121	58	0
42	123	59	0
42	125	60	0
42	127	61	0
42	129	62	0
42	131	63	0
42	133	64	0
42	135	65	0
42	137	66	0
42	139	67	0
42	141	68	0
42	143	69	0
42	145	70	0
42	147	71	0
42	149	72	0
42	151	73	0
42	153	74	0
42	155	75	0
42	157	76	0
42	159	77	0
42	161	78	0
42	163	79	0
42	165	80	0
42	167	81	0
42	169	82	0
42	171	83	0
42	173	84	0
42	175	85	0
42	177	86	0
42	179	87	0
42	181	88	0
42	183	89	0
42	185	90	0
42	187	91	0
42	189	92	0
42	191	93	0
42	193	94	0
42	195	95	0
42	197	96	0
42	199	97	0
42	201	98	0
42	203	99	0
42	205	100	0
41	87	41	76.65
41	89	42	76.65
41	91	43	76.65
41	93	44	76.65
41	95	45	76.65
41	97	46	76.65
41	99	47	76.65
41	101	48	76.65
41	103	49	76.65
41	105	50	76.65
41	107	51	76.65
41	109	52	76.65
41	111	53	76.65
41	113	54	76.65
41	115	55	76.65
41	117	56	76.65
41	119	57	76.65
41	121	58	76.65
41	123	59	76.65
41	125	60	76.65
41	127	61	76.65
41	129	62	76.65
41	131	63	76.65
41	133	64	76.65
41	135	65	76.65
41	137	66	76.65
41	139	67	76.65
41	141	68	76.65
41	143	69	76.65
41	145	70	76.65
41	147	71	76.65
41	149	72	76.65
41	151	73	76.65
41	153	74	76.65
41	155	75	76.65
41	157	76	76.65
41	159	77	76.65
41	161	78	76.65
41	163	79	76.65
41	165	80	76.65
41	167	81	76.65
41	169	82	76.65
41	171	83	76.65
41	173	84	76.65
41	175	85	76.65
41	177	86	76.65
41	179	87	76.65
41	181	88	76.65
41	183	89	76.65
41	185	90	76.65
41	187	91	76.65
41	189	92	76.65
41	191	93	76.65
41	193	94	76.65
41	195	95	76.65
41	197	96	76.65
41	199	97	76.65
41	201	98	76.65
41	203	99	76.65
41	205	100	76.65
40	87	41	27.6
40	89	42	27.6
40	91	43	56.398798441959
40	93	44	85.394591408949
40	95	45	114.24040965073
40	97	46	143.26701892222
40	99	47	171.99371552832
40	101	48	199.79269941313
40	103	49	228.24172090617
40	105	50	254.01228249208
40	107	51	270.97864522945
40	109	52	278.4414086398
40	111	53	278.98343150669
40	113	54	279.19697202307
40	115	55	279.23072326923
40	117	56	279.23677823866
40	119	57	279.23929714582
40	121	58	279.24080047887
40	123	59	279.24080047887
40	125	60	279.24080047887
40	127	61	279.24080047887
40	129	62	279.24080047887
40	131	63	279.24080047887
40	133	64	279.24080047887
40	135	65	279.24080047887
40	137	66	279.24080047887
40	139	67	279.24080047887
40	141	68	279.24080047887
40	143	69	279.24080047887
40	145	70	279.24080047887
40	147	71	279.24080047887
40	149	72	279.24080047887
40	151	73	279.24080047887
40	153	74	279.24080047887
40	155	75	279.24080047887
40	157	76	279.24080047887
40	159	77	279.24080047887
40	161	78	279.24080047887
40	163	79	279.24080047887
40	165	80	279.24080047887
40	167	81	279.24080047887
40	169	82	279.24080047887
40	171	83	279.24080047887
40	173	84	279.24080047887
40	175	85	279.24080047887
40	177	86	279.24080047887
40	179	87	279.24080047887
40	181	88	279.24080047887
40	183	89	279.24080047887
40	185	90	279.24080047887
40	187	91	279.24080047887
40	189	92	279.24080047887
40	191	93	279.24080047887
40	193	94	279.24080047887
40	195	95	279.24080047887
40	197	96	279.24080047887
40	199	97	279.24080047887
40	201	98	279.24080047887
40	203	99	279.24080047887
40	205	100	279.24080047887
49	101	48	2.9030584082569
49	103	49	15.328823635641
49	105	50	6.7314192349311
49	107	51	0.973
49	109	52	0.973
49	111	53	0.973
49	113	54	0.973
49	115	55	0.973
49	117	56	0.973
49	119	57	1.110654560725
49	121	58	1.110555040549
49	123	59	1.1100372337811
49	125	60	1.1100157081807
49	127	61	0.973
49	129	62	0.973
49	131	63	0.973
49	133	64	0.973
49	135	65	0.973
49	137	66	0.973
49	139	67	0.973
49	141	68	0.973
49	143	69	0.973
49	145	70	0.973
49	147	71	0.973
49	149	72	0.973
49	151	73	0.973
49	153	74	0.973
49	155	75	0.973
49	157	76	0.973
49	159	77	0.973
49	161	78	0.973
49	163	79	0.973
49	165	80	0.973
49	167	81	0.973
49	169	82	0.973
49	171	83	0.973
49	173	84	0.973
49	175	85	0.973
49	177	86	0.973
49	179	87	0.973
49	181	88	0.973
49	183	89	0.973
49	185	90	0.973
49	187	91	0.973
49	189	92	0.973
49	191	93	0.973
49	193	94	0.973
49	195	95	0.973
49	197	96	0.973
49	199	97	0.973
49	201	98	0.973
49	203	99	0.973
49	205	100	0.973
48	101	48	-0.42849456577096
48	103	49	1.0061981094768
48	105	50	-0.0088635730789974
48	107	51	-1.2469660477946
48	109	52	-2.3699018547669
48	111	53	-7.8599741497152
48	113	54	-9.81
48	115	55	-9.0785646141979
48	117	56	-4.6914953215342
48	119	57	-0.046985009878442
48	121	58	-0.0058769317059355
48	123	59	-0.011036957960204
48	125	60	-0.00049046143432434
48	127	61	-0.00032642546821044
48	129	62	0
48	131	63	0
48	133	64	0
48	135	65	0
48	137	66	0
48	139	67	0
48	141	68	0
48	143	69	0
48	145	70	0
48	147	71	0
48	149	72	0
48	151	73	0
48	153	74	0
48	155	75	0
48	157	76	0
48	159	77	0
48	161	78	0
48	163	79	0
48	165	80	0
48	167	81	0
48	169	82	0
48	171	83	0
48	173	84	0
48	175	85	0
48	177	86	0
48	179	87	0
48	181	88	0
48	183	89	0
48	185	90	0
48	187	91	0
48	189	92	0
48	191	93	0
48	193	94	0
48	195	95	0
48	197	96	0
48	199	97	0
48	201	98	0
48	203	99	0
48	205	100	0
47	99	47	34.552777803829
47	101	48	34.124283238058
47	103	49	35.130481347535
47	105	50	35.121617774456
47	107	51	33.874651726661
47	109	52	31.504749871894
47	111	53	23.644775722179
47	113	54	13.834775722179
47	115	55	4.7562111079813
47	117	56	0.064715786447117
47	119	57	0.017730776568675
47	121	58	0.011853844862739
47	123	59	0.00081688690253478
47	125	60	0.00032642546821044
47	127	61	0
47	129	62	0
47	131	63	0
47	133	64	0
47	135	65	0
47	137	66	0
47	139	67	0
47	141	68	0
47	143	69	0
47	145	70	0
47	147	71	0
47	149	72	0
47	151	73	0
47	153	74	0
47	155	75	0
47	157	76	0
47	159	77	0
47	161	78	0
47	163	79	0
47	165	80	0
47	167	81	0
47	169	82	0
47	171	83	0
47	173	84	0
47	175	85	0
47	177	86	0
47	179	87	0
47	181	88	0
47	183	89	0
47	185	90	0
47	187	91	0
47	189	92	0
47	191	93	0
47	193	94	0
47	195	95	0
47	197	96	0
47	199	97	0
47	201	98	0
47	203	99	0
47	205	100	0
46	97	46	76.65
46	99	47	76.65
46	101	48	76.65
46	103	49	76.65
46	105	50	76.65
46	107	51	76.65
46	109	52	76.65
46	111	53	76.65
46	113	54	76.65
46	115	55	76.65
46	117	56	76.65
46	119	57	76.65
46	121	58	76.65
46	123	59	76.65
46	125	60	76.65
46	127	61	76.65
46	129	62	76.65
46	131	63	76.65
46	133	64	76.65
46	135	65	76.65
46	137	66	76.65
46	139	67	76.65
46	141	68	76.65
46	143	69	76.65
46	145	70	76.65
46	147	71	76.65
46	149	72	76.65
46	151	73	76.65
46	153	74	76.65
46	155	75	76.65
46	157	76	76.65
46	159	77	76.65
46	161	78	76.65
46	163	79	76.65
46	165	80	76.65
46	167	81	76.65
46	169	82	76.65
46	171	83	76.65
46	173	84	76.65
46	175	85	76.65
46	177	86	76.65
46	179	87	76.65
46	181	88	76.65
46	183	89	76.65
46	185	90	76.65
46	187	91	76.65
46	189	92	76.65
46	191	93	76.65
46	193	94	76.65
46	195	95	76.65
46	197	96	76.65
46	199	97	76.65
46	201	98	76.65
46	203	99	76.65
46	205	100	76.65
45	97	46	27.6
45	99	47	27.6
45	101	48	62.152777803829
45	103	49	96.277061041887
45	105	50	131.40754238942
45	107	51	166.52916016388
45	109	52	200.40381189054
45	111	53	231.90856176243
45	113	54	255.55333748461
45	115	55	269.38811320679
45	117	56	274.14432431477
45	119	57	274.20904010122
45	121	58	274.22677087779
45	123	59	274.23862472265
45	125	60	274.23944160955
45	127	61	274.23976803502
45	129	62	274.23976803502
45	131	63	274.23976803502
45	133	64	274.23976803502
45	135	65	274.23976803502
45	137	66	274.23976803502
45	139	67	274.23976803502
45	141	68	274.23976803502
45	143	69	274.23976803502
45	145	70	274.23976803502
45	147	71	274.23976803502
45	149	72	274.23976803502
45	151	73	274.23976803502
45	153	74	274.23976803502
45	155	75	274.23976803502
45	157	76	274.23976803502
45	159	77	274.23976803502
45	161	78	274.23976803502
45	163	79	274.23976803502
45	165	80	274.23976803502
45	167	81	274.23976803502
45	169	82	274.23976803502
45	171	83	274.23976803502
45	173	84	274.23976803502
45	175	85	274.23976803502
45	177	86	274.23976803502
45	179	87	274.23976803502
45	181	88	274.23976803502
45	183	89	274.23976803502
45	185	90	274.23976803502
45	187	91	274.23976803502
45	189	92	274.23976803502
45	191	93	274.23976803502
45	193	94	274.23976803502
45	195	95	274.23976803502
45	197	96	274.23976803502
45	199	97	274.23976803502
45	201	98	274.23976803502
45	203	99	274.23976803502
45	205	100	274.23976803502

