version 2
run WithBeaconing-0-20200212-13:52:04-30910
attr configname WithBeaconing
attr datetime 20200212-13:52:04
attr experiment WithBeaconing
attr inifile omnetpp.ini
attr iterationvars ""
attr iterationvarsf ""
attr measurement ""
attr network RSUExampleScenario
attr processid 30910
attr repetition 0
attr replication #0
attr resultdir results
attr runnumber 0
attr seedset 0
param *.rsu[*].appl.sendBeacons true
param *.node[*].appl.sendBeacons true
param *.playgroundSizeX 2500m
param *.playgroundSizeY 2500m
param *.playgroundSizeZ 50m
param *.annotations.draw true
param *.obstacles.obstacles "xmldoc(\"config.xml\", \"//AnalogueModel[@type='SimpleObstacleShadowing']/obstacles\")"
param *.manager.updateInterval 1s
param *.manager.host "\"localhost\""
param *.manager.port 9999
param *.manager.autoShutdown true
param *.manager.launchConfig "xmldoc(\"erlangen.launchd.xml\")"
param *.rsu[0].mobility.x 2000
param *.rsu[0].mobility.y 2000
param *.rsu[0].mobility.z 3
param *.rsu[*].applType "\"TraCIDemoRSU11p\""
param *.rsu[*].appl.headerLength "80 bit"
param *.rsu[*].appl.sendBeacons false
param *.rsu[*].appl.dataOnSch false
param *.rsu[*].appl.beaconInterval 1s
param *.rsu[*].appl.beaconUserPriority 7
param *.rsu[*].appl.dataUserPriority 5
param *.rsu[*].nic.phy80211p.antennaOffsetZ "0 m"
param *.connectionManager.sendDirect true
param *.connectionManager.maxInterfDist 2600m
param *.connectionManager.drawMaxIntfDist false
param *.**.nic.mac1609_4.useServiceChannel false
param *.**.nic.mac1609_4.txPower 20mW
param *.**.nic.mac1609_4.bitrate 6Mbps
param *.**.nic.phy80211p.minPowerLevel -110dBm
param *.**.nic.phy80211p.useNoiseFloor true
param *.**.nic.phy80211p.noiseFloor -98dBm
param *.**.nic.phy80211p.decider "xmldoc(\"config.xml\")"
param *.**.nic.phy80211p.analogueModels "xmldoc(\"config.xml\", \"//AnalogueModel[@type='TwoRayInterferenceModel']\")"
param *.**.nic.phy80211p.usePropagationDelay true
param *.**.nic.phy80211p.antenna "xmldoc(\"antenna.xml\", \"/root/Antenna[@id='monopole']\")"
param *.node[*].nic.phy80211p.antennaOffsetY "0 m"
param *.node[*].nic.phy80211p.antennaOffsetZ "1.895 m"
param *.node[*].applType "\"TraCIDemo11p\""
param *.node[*].appl.headerLength "80 bit"
param *.node[*].appl.sendBeacons false
param *.node[*].appl.dataOnSch false
param *.node[*].appl.beaconInterval 1s
param *.node[*].veinsmobility.x 0
param *.node[*].veinsmobility.y 0
param *.node[*].veinsmobility.z 0
param *.node[*].veinsmobility.setHostSpeed false
param *.node[*0].veinsmobility.accidentCount 1
param *.node[*0].veinsmobility.accidentStart 73s
param *.node[*0].veinsmobility.accidentDuration 50s

vector 0 RSUExampleScenario.node[0].veinsmobility posx ETV
vector 1 RSUExampleScenario.node[0].veinsmobility posy ETV
vector 2 RSUExampleScenario.node[0].veinsmobility speed ETV
vector 3 RSUExampleScenario.node[0].veinsmobility acceleration ETV
vector 4 RSUExampleScenario.node[0].veinsmobility co2emission ETV
vector 5 RSUExampleScenario.node[1].veinsmobility posx ETV
vector 6 RSUExampleScenario.node[1].veinsmobility posy ETV
vector 7 RSUExampleScenario.node[1].veinsmobility speed ETV
vector 8 RSUExampleScenario.node[1].veinsmobility acceleration ETV
vector 9 RSUExampleScenario.node[1].veinsmobility co2emission ETV
vector 10 RSUExampleScenario.node[2].veinsmobility posx ETV
vector 11 RSUExampleScenario.node[2].veinsmobility posy ETV
vector 12 RSUExampleScenario.node[2].veinsmobility speed ETV
vector 13 RSUExampleScenario.node[2].veinsmobility acceleration ETV
vector 14 RSUExampleScenario.node[2].veinsmobility co2emission ETV
vector 15 RSUExampleScenario.node[3].veinsmobility posx ETV
vector 16 RSUExampleScenario.node[3].veinsmobility posy ETV
vector 17 RSUExampleScenario.node[3].veinsmobility speed ETV
vector 18 RSUExampleScenario.node[3].veinsmobility acceleration ETV
vector 19 RSUExampleScenario.node[3].veinsmobility co2emission ETV
vector 20 RSUExampleScenario.node[4].veinsmobility posx ETV
vector 21 RSUExampleScenario.node[4].veinsmobility posy ETV
vector 22 RSUExampleScenario.node[4].veinsmobility speed ETV
vector 23 RSUExampleScenario.node[4].veinsmobility acceleration ETV
vector 24 RSUExampleScenario.node[4].veinsmobility co2emission ETV
vector 25 RSUExampleScenario.node[5].veinsmobility posx ETV
vector 26 RSUExampleScenario.node[5].veinsmobility posy ETV
vector 27 RSUExampleScenario.node[5].veinsmobility speed ETV
vector 28 RSUExampleScenario.node[5].veinsmobility acceleration ETV
vector 29 RSUExampleScenario.node[5].veinsmobility co2emission ETV
vector 30 RSUExampleScenario.node[6].veinsmobility posx ETV
vector 31 RSUExampleScenario.node[6].veinsmobility posy ETV
vector 32 RSUExampleScenario.node[6].veinsmobility speed ETV
vector 33 RSUExampleScenario.node[6].veinsmobility acceleration ETV
vector 34 RSUExampleScenario.node[6].veinsmobility co2emission ETV
vector 35 RSUExampleScenario.node[7].veinsmobility posx ETV
vector 36 RSUExampleScenario.node[7].veinsmobility posy ETV
vector 37 RSUExampleScenario.node[7].veinsmobility speed ETV
vector 38 RSUExampleScenario.node[7].veinsmobility acceleration ETV
vector 39 RSUExampleScenario.node[7].veinsmobility co2emission ETV
vector 40 RSUExampleScenario.node[8].veinsmobility posx ETV
vector 41 RSUExampleScenario.node[8].veinsmobility posy ETV
vector 42 RSUExampleScenario.node[8].veinsmobility speed ETV
vector 43 RSUExampleScenario.node[8].veinsmobility acceleration ETV
vector 44 RSUExampleScenario.node[8].veinsmobility co2emission ETV
vector 45 RSUExampleScenario.node[9].veinsmobility posx ETV
vector 46 RSUExampleScenario.node[9].veinsmobility posy ETV
vector 47 RSUExampleScenario.node[9].veinsmobility speed ETV
vector 48 RSUExampleScenario.node[9].veinsmobility acceleration ETV
vector 49 RSUExampleScenario.node[9].veinsmobility co2emission ETV
vector 50 RSUExampleScenario.node[10].veinsmobility posx ETV
vector 51 RSUExampleScenario.node[10].veinsmobility posy ETV
vector 52 RSUExampleScenario.node[10].veinsmobility speed ETV
vector 53 RSUExampleScenario.node[10].veinsmobility acceleration ETV
vector 54 RSUExampleScenario.node[10].veinsmobility co2emission ETV
vector 55 RSUExampleScenario.node[11].veinsmobility posx ETV
vector 56 RSUExampleScenario.node[11].veinsmobility posy ETV
vector 57 RSUExampleScenario.node[11].veinsmobility speed ETV
vector 58 RSUExampleScenario.node[11].veinsmobility acceleration ETV
vector 59 RSUExampleScenario.node[11].veinsmobility co2emission ETV
vector 60 RSUExampleScenario.node[12].veinsmobility posx ETV
vector 61 RSUExampleScenario.node[12].veinsmobility posy ETV
vector 62 RSUExampleScenario.node[12].veinsmobility speed ETV
vector 63 RSUExampleScenario.node[12].veinsmobility acceleration ETV
vector 64 RSUExampleScenario.node[12].veinsmobility co2emission ETV
vector 65 RSUExampleScenario.node[13].veinsmobility posx ETV
vector 66 RSUExampleScenario.node[13].veinsmobility posy ETV
vector 67 RSUExampleScenario.node[13].veinsmobility speed ETV
vector 68 RSUExampleScenario.node[13].veinsmobility acceleration ETV
vector 69 RSUExampleScenario.node[13].veinsmobility co2emission ETV
vector 70 RSUExampleScenario.node[14].veinsmobility posx ETV
vector 71 RSUExampleScenario.node[14].veinsmobility posy ETV
vector 72 RSUExampleScenario.node[14].veinsmobility speed ETV
vector 73 RSUExampleScenario.node[14].veinsmobility acceleration ETV
vector 74 RSUExampleScenario.node[14].veinsmobility co2emission ETV
vector 75 RSUExampleScenario.node[15].veinsmobility posx ETV
vector 76 RSUExampleScenario.node[15].veinsmobility posy ETV
vector 77 RSUExampleScenario.node[15].veinsmobility speed ETV
vector 78 RSUExampleScenario.node[15].veinsmobility acceleration ETV
vector 79 RSUExampleScenario.node[15].veinsmobility co2emission ETV
vector 80 RSUExampleScenario.node[16].veinsmobility posx ETV
vector 81 RSUExampleScenario.node[16].veinsmobility posy ETV
vector 82 RSUExampleScenario.node[16].veinsmobility speed ETV
vector 83 RSUExampleScenario.node[16].veinsmobility acceleration ETV
vector 84 RSUExampleScenario.node[16].veinsmobility co2emission ETV
vector 85 RSUExampleScenario.node[17].veinsmobility posx ETV
vector 86 RSUExampleScenario.node[17].veinsmobility posy ETV
vector 87 RSUExampleScenario.node[17].veinsmobility speed ETV
vector 88 RSUExampleScenario.node[17].veinsmobility acceleration ETV
vector 89 RSUExampleScenario.node[17].veinsmobility co2emission ETV
vector 90 RSUExampleScenario.node[18].veinsmobility posx ETV
vector 91 RSUExampleScenario.node[18].veinsmobility posy ETV
vector 92 RSUExampleScenario.node[18].veinsmobility speed ETV
vector 93 RSUExampleScenario.node[18].veinsmobility acceleration ETV
vector 94 RSUExampleScenario.node[18].veinsmobility co2emission ETV
vector 95 RSUExampleScenario.node[19].veinsmobility posx ETV
vector 96 RSUExampleScenario.node[19].veinsmobility posy ETV
vector 97 RSUExampleScenario.node[19].veinsmobility speed ETV
vector 98 RSUExampleScenario.node[19].veinsmobility acceleration ETV
vector 99 RSUExampleScenario.node[19].veinsmobility co2emission ETV
vector 100 RSUExampleScenario.node[20].veinsmobility posx ETV
vector 101 RSUExampleScenario.node[20].veinsmobility posy ETV
vector 102 RSUExampleScenario.node[20].veinsmobility speed ETV
vector 103 RSUExampleScenario.node[20].veinsmobility acceleration ETV
vector 104 RSUExampleScenario.node[20].veinsmobility co2emission ETV
vector 105 RSUExampleScenario.node[21].veinsmobility posx ETV
vector 106 RSUExampleScenario.node[21].veinsmobility posy ETV
vector 107 RSUExampleScenario.node[21].veinsmobility speed ETV
vector 108 RSUExampleScenario.node[21].veinsmobility acceleration ETV
vector 109 RSUExampleScenario.node[21].veinsmobility co2emission ETV
vector 110 RSUExampleScenario.node[22].veinsmobility posx ETV
vector 111 RSUExampleScenario.node[22].veinsmobility posy ETV
vector 112 RSUExampleScenario.node[22].veinsmobility speed ETV
vector 113 RSUExampleScenario.node[22].veinsmobility acceleration ETV
vector 114 RSUExampleScenario.node[22].veinsmobility co2emission ETV
vector 115 RSUExampleScenario.node[23].veinsmobility posx ETV
vector 116 RSUExampleScenario.node[23].veinsmobility posy ETV
vector 117 RSUExampleScenario.node[23].veinsmobility speed ETV
vector 118 RSUExampleScenario.node[23].veinsmobility acceleration ETV
vector 119 RSUExampleScenario.node[23].veinsmobility co2emission ETV
vector 120 RSUExampleScenario.node[24].veinsmobility posx ETV
vector 121 RSUExampleScenario.node[24].veinsmobility posy ETV
vector 122 RSUExampleScenario.node[24].veinsmobility speed ETV
vector 123 RSUExampleScenario.node[24].veinsmobility acceleration ETV
vector 124 RSUExampleScenario.node[24].veinsmobility co2emission ETV
vector 125 RSUExampleScenario.node[25].veinsmobility posx ETV
vector 126 RSUExampleScenario.node[25].veinsmobility posy ETV
vector 127 RSUExampleScenario.node[25].veinsmobility speed ETV
vector 128 RSUExampleScenario.node[25].veinsmobility acceleration ETV
vector 129 RSUExampleScenario.node[25].veinsmobility co2emission ETV
vector 130 RSUExampleScenario.node[26].veinsmobility posx ETV
vector 131 RSUExampleScenario.node[26].veinsmobility posy ETV
vector 132 RSUExampleScenario.node[26].veinsmobility speed ETV
vector 133 RSUExampleScenario.node[26].veinsmobility acceleration ETV
vector 134 RSUExampleScenario.node[26].veinsmobility co2emission ETV
vector 135 RSUExampleScenario.node[27].veinsmobility posx ETV
vector 136 RSUExampleScenario.node[27].veinsmobility posy ETV
vector 137 RSUExampleScenario.node[27].veinsmobility speed ETV
vector 138 RSUExampleScenario.node[27].veinsmobility acceleration ETV
vector 139 RSUExampleScenario.node[27].veinsmobility co2emission ETV
vector 140 RSUExampleScenario.node[28].veinsmobility posx ETV
vector 141 RSUExampleScenario.node[28].veinsmobility posy ETV
vector 142 RSUExampleScenario.node[28].veinsmobility speed ETV
vector 143 RSUExampleScenario.node[28].veinsmobility acceleration ETV
vector 144 RSUExampleScenario.node[28].veinsmobility co2emission ETV
vector 145 RSUExampleScenario.node[29].veinsmobility posx ETV
vector 146 RSUExampleScenario.node[29].veinsmobility posy ETV
vector 147 RSUExampleScenario.node[29].veinsmobility speed ETV
vector 148 RSUExampleScenario.node[29].veinsmobility acceleration ETV
vector 149 RSUExampleScenario.node[29].veinsmobility co2emission ETV
vector 150 RSUExampleScenario.node[30].veinsmobility posx ETV
vector 151 RSUExampleScenario.node[30].veinsmobility posy ETV
vector 152 RSUExampleScenario.node[30].veinsmobility speed ETV
vector 153 RSUExampleScenario.node[30].veinsmobility acceleration ETV
vector 154 RSUExampleScenario.node[30].veinsmobility co2emission ETV
vector 155 RSUExampleScenario.node[31].veinsmobility posx ETV
vector 156 RSUExampleScenario.node[31].veinsmobility posy ETV
vector 157 RSUExampleScenario.node[31].veinsmobility speed ETV
vector 158 RSUExampleScenario.node[31].veinsmobility acceleration ETV
vector 159 RSUExampleScenario.node[31].veinsmobility co2emission ETV
vector 160 RSUExampleScenario.node[32].veinsmobility posx ETV
vector 161 RSUExampleScenario.node[32].veinsmobility posy ETV
vector 162 RSUExampleScenario.node[32].veinsmobility speed ETV
vector 163 RSUExampleScenario.node[32].veinsmobility acceleration ETV
vector 164 RSUExampleScenario.node[32].veinsmobility co2emission ETV
vector 165 RSUExampleScenario.node[33].veinsmobility posx ETV
vector 166 RSUExampleScenario.node[33].veinsmobility posy ETV
vector 167 RSUExampleScenario.node[33].veinsmobility speed ETV
vector 168 RSUExampleScenario.node[33].veinsmobility acceleration ETV
vector 169 RSUExampleScenario.node[33].veinsmobility co2emission ETV
vector 170 RSUExampleScenario.node[34].veinsmobility posx ETV
vector 171 RSUExampleScenario.node[34].veinsmobility posy ETV
vector 172 RSUExampleScenario.node[34].veinsmobility speed ETV
vector 173 RSUExampleScenario.node[34].veinsmobility acceleration ETV
vector 174 RSUExampleScenario.node[34].veinsmobility co2emission ETV
vector 175 RSUExampleScenario.node[35].veinsmobility posx ETV
vector 176 RSUExampleScenario.node[35].veinsmobility posy ETV
vector 177 RSUExampleScenario.node[35].veinsmobility speed ETV
vector 178 RSUExampleScenario.node[35].veinsmobility acceleration ETV
vector 179 RSUExampleScenario.node[35].veinsmobility co2emission ETV
vector 180 RSUExampleScenario.node[36].veinsmobility posx ETV
vector 181 RSUExampleScenario.node[36].veinsmobility posy ETV
vector 182 RSUExampleScenario.node[36].veinsmobility speed ETV
vector 183 RSUExampleScenario.node[36].veinsmobility acceleration ETV
vector 184 RSUExampleScenario.node[36].veinsmobility co2emission ETV
vector 185 RSUExampleScenario.node[37].veinsmobility posx ETV
vector 186 RSUExampleScenario.node[37].veinsmobility posy ETV
vector 187 RSUExampleScenario.node[37].veinsmobility speed ETV
vector 188 RSUExampleScenario.node[37].veinsmobility acceleration ETV
vector 189 RSUExampleScenario.node[37].veinsmobility co2emission ETV
vector 190 RSUExampleScenario.node[38].veinsmobility posx ETV
vector 191 RSUExampleScenario.node[38].veinsmobility posy ETV
vector 192 RSUExampleScenario.node[38].veinsmobility speed ETV
vector 193 RSUExampleScenario.node[38].veinsmobility acceleration ETV
vector 194 RSUExampleScenario.node[38].veinsmobility co2emission ETV
vector 195 RSUExampleScenario.node[39].veinsmobility posx ETV
vector 196 RSUExampleScenario.node[39].veinsmobility posy ETV
vector 197 RSUExampleScenario.node[39].veinsmobility speed ETV
vector 198 RSUExampleScenario.node[39].veinsmobility acceleration ETV
vector 199 RSUExampleScenario.node[39].veinsmobility co2emission ETV
vector 200 RSUExampleScenario.node[40].veinsmobility posx ETV
vector 201 RSUExampleScenario.node[40].veinsmobility posy ETV
vector 202 RSUExampleScenario.node[40].veinsmobility speed ETV
vector 203 RSUExampleScenario.node[40].veinsmobility acceleration ETV
vector 204 RSUExampleScenario.node[40].veinsmobility co2emission ETV
vector 205 RSUExampleScenario.node[41].veinsmobility posx ETV
vector 206 RSUExampleScenario.node[41].veinsmobility posy ETV
vector 207 RSUExampleScenario.node[41].veinsmobility speed ETV
vector 208 RSUExampleScenario.node[41].veinsmobility acceleration ETV
vector 209 RSUExampleScenario.node[41].veinsmobility co2emission ETV
vector 210 RSUExampleScenario.node[42].veinsmobility posx ETV
vector 211 RSUExampleScenario.node[42].veinsmobility posy ETV
vector 212 RSUExampleScenario.node[42].veinsmobility speed ETV
vector 213 RSUExampleScenario.node[42].veinsmobility acceleration ETV
vector 214 RSUExampleScenario.node[42].veinsmobility co2emission ETV
vector 215 RSUExampleScenario.node[43].veinsmobility posx ETV
vector 216 RSUExampleScenario.node[43].veinsmobility posy ETV
vector 217 RSUExampleScenario.node[43].veinsmobility speed ETV
vector 218 RSUExampleScenario.node[43].veinsmobility acceleration ETV
vector 219 RSUExampleScenario.node[43].veinsmobility co2emission ETV
vector 220 RSUExampleScenario.node[44].veinsmobility posx ETV
vector 221 RSUExampleScenario.node[44].veinsmobility posy ETV
vector 222 RSUExampleScenario.node[44].veinsmobility speed ETV
vector 223 RSUExampleScenario.node[44].veinsmobility acceleration ETV
vector 224 RSUExampleScenario.node[44].veinsmobility co2emission ETV
vector 225 RSUExampleScenario.node[45].veinsmobility posx ETV
vector 226 RSUExampleScenario.node[45].veinsmobility posy ETV
vector 227 RSUExampleScenario.node[45].veinsmobility speed ETV
vector 228 RSUExampleScenario.node[45].veinsmobility acceleration ETV
vector 229 RSUExampleScenario.node[45].veinsmobility co2emission ETV
vector 230 RSUExampleScenario.node[46].veinsmobility posx ETV
vector 231 RSUExampleScenario.node[46].veinsmobility posy ETV
vector 232 RSUExampleScenario.node[46].veinsmobility speed ETV
vector 233 RSUExampleScenario.node[46].veinsmobility acceleration ETV
vector 234 RSUExampleScenario.node[46].veinsmobility co2emission ETV
vector 235 RSUExampleScenario.node[47].veinsmobility posx ETV
vector 236 RSUExampleScenario.node[47].veinsmobility posy ETV
vector 237 RSUExampleScenario.node[47].veinsmobility speed ETV
vector 238 RSUExampleScenario.node[47].veinsmobility acceleration ETV
vector 239 RSUExampleScenario.node[47].veinsmobility co2emission ETV
vector 240 RSUExampleScenario.node[48].veinsmobility posx ETV
vector 241 RSUExampleScenario.node[48].veinsmobility posy ETV
vector 242 RSUExampleScenario.node[48].veinsmobility speed ETV
vector 243 RSUExampleScenario.node[48].veinsmobility acceleration ETV
vector 244 RSUExampleScenario.node[48].veinsmobility co2emission ETV
vector 245 RSUExampleScenario.node[49].veinsmobility posx ETV
vector 246 RSUExampleScenario.node[49].veinsmobility posy ETV
vector 247 RSUExampleScenario.node[49].veinsmobility speed ETV
vector 248 RSUExampleScenario.node[49].veinsmobility acceleration ETV
vector 249 RSUExampleScenario.node[49].veinsmobility co2emission ETV
vector 250 RSUExampleScenario.node[50].veinsmobility posx ETV
vector 251 RSUExampleScenario.node[50].veinsmobility posy ETV
vector 252 RSUExampleScenario.node[50].veinsmobility speed ETV
vector 253 RSUExampleScenario.node[50].veinsmobility acceleration ETV
vector 254 RSUExampleScenario.node[50].veinsmobility co2emission ETV
vector 255 RSUExampleScenario.node[51].veinsmobility posx ETV
vector 256 RSUExampleScenario.node[51].veinsmobility posy ETV
vector 257 RSUExampleScenario.node[51].veinsmobility speed ETV
vector 258 RSUExampleScenario.node[51].veinsmobility acceleration ETV
vector 259 RSUExampleScenario.node[51].veinsmobility co2emission ETV
vector 260 RSUExampleScenario.node[52].veinsmobility posx ETV
vector 261 RSUExampleScenario.node[52].veinsmobility posy ETV
vector 262 RSUExampleScenario.node[52].veinsmobility speed ETV
vector 263 RSUExampleScenario.node[52].veinsmobility acceleration ETV
vector 264 RSUExampleScenario.node[52].veinsmobility co2emission ETV
vector 265 RSUExampleScenario.node[53].veinsmobility posx ETV
vector 266 RSUExampleScenario.node[53].veinsmobility posy ETV
vector 267 RSUExampleScenario.node[53].veinsmobility speed ETV
vector 268 RSUExampleScenario.node[53].veinsmobility acceleration ETV
vector 269 RSUExampleScenario.node[53].veinsmobility co2emission ETV
vector 270 RSUExampleScenario.node[54].veinsmobility posx ETV
vector 271 RSUExampleScenario.node[54].veinsmobility posy ETV
vector 272 RSUExampleScenario.node[54].veinsmobility speed ETV
vector 273 RSUExampleScenario.node[54].veinsmobility acceleration ETV
vector 274 RSUExampleScenario.node[54].veinsmobility co2emission ETV
vector 275 RSUExampleScenario.node[55].veinsmobility posx ETV
vector 276 RSUExampleScenario.node[55].veinsmobility posy ETV
vector 277 RSUExampleScenario.node[55].veinsmobility speed ETV
vector 278 RSUExampleScenario.node[55].veinsmobility acceleration ETV
vector 279 RSUExampleScenario.node[55].veinsmobility co2emission ETV
vector 280 RSUExampleScenario.node[56].veinsmobility posx ETV
vector 281 RSUExampleScenario.node[56].veinsmobility posy ETV
vector 282 RSUExampleScenario.node[56].veinsmobility speed ETV
vector 283 RSUExampleScenario.node[56].veinsmobility acceleration ETV
vector 284 RSUExampleScenario.node[56].veinsmobility co2emission ETV
vector 285 RSUExampleScenario.node[57].veinsmobility posx ETV
vector 286 RSUExampleScenario.node[57].veinsmobility posy ETV
vector 287 RSUExampleScenario.node[57].veinsmobility speed ETV
vector 288 RSUExampleScenario.node[57].veinsmobility acceleration ETV
vector 289 RSUExampleScenario.node[57].veinsmobility co2emission ETV
vector 290 RSUExampleScenario.node[58].veinsmobility posx ETV
vector 291 RSUExampleScenario.node[58].veinsmobility posy ETV
vector 292 RSUExampleScenario.node[58].veinsmobility speed ETV
vector 293 RSUExampleScenario.node[58].veinsmobility acceleration ETV
vector 294 RSUExampleScenario.node[58].veinsmobility co2emission ETV
vector 295 RSUExampleScenario.node[59].veinsmobility posx ETV
vector 296 RSUExampleScenario.node[59].veinsmobility posy ETV
vector 297 RSUExampleScenario.node[59].veinsmobility speed ETV
vector 298 RSUExampleScenario.node[59].veinsmobility acceleration ETV
vector 299 RSUExampleScenario.node[59].veinsmobility co2emission ETV
vector 300 RSUExampleScenario.node[60].veinsmobility posx ETV
vector 301 RSUExampleScenario.node[60].veinsmobility posy ETV
vector 302 RSUExampleScenario.node[60].veinsmobility speed ETV
vector 303 RSUExampleScenario.node[60].veinsmobility acceleration ETV
vector 304 RSUExampleScenario.node[60].veinsmobility co2emission ETV
vector 305 RSUExampleScenario.node[61].veinsmobility posx ETV
vector 306 RSUExampleScenario.node[61].veinsmobility posy ETV
vector 307 RSUExampleScenario.node[61].veinsmobility speed ETV
vector 308 RSUExampleScenario.node[61].veinsmobility acceleration ETV
vector 309 RSUExampleScenario.node[61].veinsmobility co2emission ETV
vector 310 RSUExampleScenario.node[62].veinsmobility posx ETV
vector 311 RSUExampleScenario.node[62].veinsmobility posy ETV
vector 312 RSUExampleScenario.node[62].veinsmobility speed ETV
vector 313 RSUExampleScenario.node[62].veinsmobility acceleration ETV
vector 314 RSUExampleScenario.node[62].veinsmobility co2emission ETV
vector 315 RSUExampleScenario.node[63].veinsmobility posx ETV
vector 316 RSUExampleScenario.node[63].veinsmobility posy ETV
vector 317 RSUExampleScenario.node[63].veinsmobility speed ETV
vector 318 RSUExampleScenario.node[63].veinsmobility acceleration ETV
vector 319 RSUExampleScenario.node[63].veinsmobility co2emission ETV
vector 320 RSUExampleScenario.node[64].veinsmobility posx ETV
vector 321 RSUExampleScenario.node[64].veinsmobility posy ETV
vector 322 RSUExampleScenario.node[64].veinsmobility speed ETV
vector 323 RSUExampleScenario.node[64].veinsmobility acceleration ETV
vector 324 RSUExampleScenario.node[64].veinsmobility co2emission ETV
vector 325 RSUExampleScenario.node[65].veinsmobility posx ETV
vector 326 RSUExampleScenario.node[65].veinsmobility posy ETV
vector 327 RSUExampleScenario.node[65].veinsmobility speed ETV
vector 328 RSUExampleScenario.node[65].veinsmobility acceleration ETV
vector 329 RSUExampleScenario.node[65].veinsmobility co2emission ETV
vector 330 RSUExampleScenario.node[66].veinsmobility posx ETV
vector 331 RSUExampleScenario.node[66].veinsmobility posy ETV
vector 332 RSUExampleScenario.node[66].veinsmobility speed ETV
4	73	3	4.1962556146115
4	104	4	4.6765885426193
4	168	5	5.9822455727343
4	232	6	6.7469998477461
4	296	7	8.9023657158011
4	405	8	3.651678681686
4	514	9	1.6857621818206
4	623	10	2.3276633668785
4	789	11	2.0995306276608
4	955	12	1.7923040941768
4	1121	13	2.0305681317735
4	1356	14	1.9844951865828
4	1591	15	2.2187318873595
4	1826	16	2.1416854339172
4	2142	17	1.8896148890835
4	2458	18	2.0499339673421
4	2774	19	0.973
4	3183	20	0.973
4	3592	21	3.236958348016
4	4001	22	7.0694109561587
4	4515	23	7.2974163894139
4	5029	24	8.7433911631671
4	5543	25	1.9831721788576
4	6174	26	2.116835898497
4	6805	27	1.9244585801898
4	7436	28	1.8775583559564
4	8196	29	1.9545657515643
4	8956	30	2.0931646705581
4	9716	31	2.2926746988581
4	10616	32	1.993865292131
4	11517	33	1.6968396252803
4	12418	34	2.4149847823944
4	13472	35	1.6983583398882
4	14526	36	1.9906198998388
4	15580	37	2.3442713071536
4	16799	38	1.7018725964397
4	18018	39	2.0993392475273
4	19237	40	1.9585122345881
4	20633	41	2.4691677522194
4	22029	42	1.9170802753567
4	23425	43	1.8345014514108
4	25010	44	2.0838538984303
4	26594	45	2.0539801513469
4	28179	46	2.0668686152862
4	29965	47	1.9813596940184
4	31751	48	2.1840996762636
4	33537	49	2.0987681125428
4	35536	50	1.8592856847688
4	37535	51	2.0145873760113
4	39534	52	2.0950692067684
4	41758	53	1.8080099866508
4	43982	54	1.9870007069688
4	46206	55	2.2415869227426
4	48667	56	2.0614496349521
4	51127	57	2.0646020593826
4	53588	58	1.8102089718445
4	56298	59	2.1453880261281
4	59008	60	1.9826536733129
4	61718	61	2.0673636130683
4	64688	62	2.0538817544551
4	67659	63	2.1528270365066
4	70630	64	2.0265038417738
4	73873	65	1.9764402783138
4	77117	66	2.2347131127692
4	80360	67	2.0405446651404
4	83889	68	1.6487905152147
4	87416	69	2.0126291187762
4	90943	70	2.0466796925005
4	94769	71	2.3433989621326
4	98593	72	0.973
4	102417	73	0.973
4	106551	74	0.973
4	110684	75	0.973
4	114816	76	0.973
4	119271	77	0.973
4	123725	78	0.973
4	128180	79	0.973
4	132968	80	0.973
4	137757	81	0.973
4	142544	82	0.973
4	147675	83	0.973
4	152807	84	0.973
4	158115	85	0.973
4	163606	86	0.973
4	174217	87	0.973
4	179706	88	0.973
4	190613	89	0.973
4	196473	90	0.973
4	202708	91	0.973
4	208948	92	0.973
4	215383	93	0.973
4	221624	94	0.973
4	228459	95	0.973
4	235091	96	0.973
4	242118	97	0.973
4	249152	98	0.973
4	256384	99	0.973
4	263409	100	0.973
4	271053	101	0.973
4	278466	102	0.973
4	286307	103	0.973
4	294133	104	0.973
4	302167	105	0.973
4	309990	106	0.973
4	318473	107	0.973
4	326742	108	0.973
4	335448	109	0.973
4	344158	110	0.973
4	352849	111	0.973
4	361737	112	0.973
4	370855	113	0.973
4	380186	114	0.973
4	389269	115	0.973
4	399315	116	0.973
4	408864	117	0.973
4	418895	118	0.973
4	428921	119	0.973
4	439198	120	0.973
4	449230	121	0.973
4	460007	122	0.973
4	470515	123	0.973
4	481530	124	2.4080817491368
4	492532	125	3.6097150181135
4	503794	126	4.2908662920557
4	514765	127	5.3300190940896
4	526518	128	6.7716083595646
4	537985	129	8.2306431470796
4	549981	130	7.3964630212997
4	561967	131	1.8694407969886
4	573937	132	2.1350370330868
4	586174	133	1.8094749832879
4	598704	134	2.4017242150946
4	611510	135	1.8653612770894
4	624035	136	1.8398927616686
4	637699	137	1.9973272185625
4	650808	138	2.1700231934041
4	664474	139	2.1950764783891
4	678160	140	2.1348521217125
4	692152	141	1.848423466467
4	705854	142	2.0679571445659
4	720453	143	1.7820942605596
4	734772	144	2.0749497938408
4	749682	145	2.1041555485124
4	764594	146	2.0461934569666
4	779818	147	2.0977460374518
4	794755	148	2.0775076200446
4	810617	149	2.0021532082224
4	826193	150	1.8438174528787
4	841768	151	2.3799842198344
4	858596	152	1.8407138090759
4	874796	153	1.8574406286347
4	891628	154	2.3123894181885
4	908452	155	2.1535598612525
4	925593	156	1.9691423592976
4	942399	157	1.9376113298153
4	960178	158	2.0599739597323
4	977608	159	1.8765833152484
4	995665	160	1.9776849407054
4	1013708	161	2.1389434248576
4	1032052	162	1.880046652652
4	1050032	163	2.1744942583174
4	1068993	164	2.1485598299828
4	1087565	165	2.1780523429234
4	1106796	166	2.006515889368
4	1125981	167	1.925631167968
4	1145476	168	2.0271072571429
4	1164564	169	1.963148023397
4	1184308	170	1.9801919981003
4	1204335	171	1.9857054682484
4	1223981	172	2.0623913420123
4	1244983	173	2.0746881752127
4	1265240	174	2.0282810489433
4	1286169	175	1.9376672998449
4	1307076	176	2.285007598429
4	1328316	177	1.6767761419313
4	1349162	178	2.4332477356262
4	1371079	179	1.8460433705176
4	1392625	180	2.0396082504061
4	1414897	181	2.1201968286833
4	1437164	182	1.7756707209124
4	1459800	183	2.0979048255299
4	1482072	184	2.2992021735733
4	1505448	185	1.9991334071776
4	1528442	186	1.9308720231439
4	1552176	187	2.061373566653
4	1575905	188	2.0062896391449
4	1600005	189	1.9691528347794
4	1623716	190	1.9843569534359
4	1648179	191	2.0389054582681
4	1673011	192	1.909553286312
4	1697458	193	2.4166957813598
4	1723456	194	1.8832667947728
4	1748647	195	1.9381296909057
4	1774602	196	1.8770198494576
4	1800539	197	2.2596233831924
4	1826866	198	2.1397622924864
4	1852771	199	1.9514174169799
4	1879831	200	2.0066425778797
3	73	3	1.9133529532584
3	104	4	1.6952873393311
3	168	5	1.8731499400432
3	232	6	1.8034025248489
3	296	7	2.1224504257739
3	405	8	0.47851136310433
3	514	9	-0.1021267059911
3	623	10	0.086452728209551
3	789	11	0.018149402965792
3	955	12	-0.071146251906175
3	1121	13	-0.0001373288989992
3	1356	14	-0.013471481548622
3	1591	15	0.054527352924923
3	1826	16	0.03063477210002
3	2142	17	-0.04292928970186
3	2458	18	0.0046075960877356
3	2774	19	-2.4534173319781
3	3183	20	-4.5
3	3592	21	0.8935116339894
3	4001	22	2.2078255666373
3	4515	23	1.8858743545134
3	5029	24	1.9903831391631
3	5543	25	-0.01549494290026
3	6174	26	0.023465231521987
3	6805	27	-0.032681161146611
3	7436	28	-0.045395484422334
3	8196	29	-0.021798015409148
3	8956	30	0.019004409639164
3	9716	31	0.075803257238585
3	10616	32	-0.012492124584968
3	11517	33	-0.098418530665803
3	12418	34	0.11205169297755
3	13472	35	-0.098285225864965
3	14526	36	-0.01064266787842
3	15580	37	0.091707072502468
3	16799	38	-0.096865584938786
3	18018	39	0.021350334375166
3	19237	40	-0.020129852422979
3	20633	41	0.12754734932445
3	22029	42	-0.035107081409079
3	23425	43	-0.058123281914741
3	25010	44	0.015779600332026
3	26594	45	0.0066701874043797
3	28179	46	0.010192284216172
3	29965	47	-0.014827134867664
3	31751	48	0.044105808557942
3	33537	49	0.018181241797283
3	35536	50	-0.051492602068466
3	37535	51	-0.0050966037251055
3	39534	52	0.018296227052343
3	41758	53	-0.065421910630539
3	43982	54	-0.011582619075197
3	46206	55	0.062391626026946
3	48667	56	0.0084849686850799
3	51127	57	0.0091393382777465
3	53588	58	-0.064856647045817
3	56298	59	0.034172988792415
3	59008	60	-0.013924592840485
3	61718	61	0.011007046941668
3	64688	62	0.0067783149331806
3	67659	63	0.035106239686721
3	70630	64	-0.0023704322986315
3	73873	65	-0.016764806038699
3	77117	66	0.058098005878273
3	80360	67	0.0005279496987356
3	83889	68	-0.11307939741528
3	87416	69	-0.0042316347081215
3	90943	70	0.0057685952470639
3	94769	71	0.091050112515221
3	98593	72	-2.598181629278
3	102417	73	-4.5
3	106551	74	-4.5
3	110684	75	-2.3805052288885
3	114816	76	0
3	119271	77	0
3	123725	78	0
3	128180	79	0
3	132968	80	0
3	137757	81	0
3	142544	82	0
3	147675	83	0
3	152807	84	0
3	158115	85	0
3	163606	86	0
3	174217	87	0
3	179706	88	0
3	190613	89	0
3	196473	90	0
3	202708	91	0
3	208948	92	0
3	215383	93	0
3	221624	94	0
3	228459	95	0
3	235091	96	0
3	242118	97	0
3	249152	98	0
3	256384	99	0
3	263409	100	0
3	271053	101	0
3	278466	102	0
3	286307	103	0
3	294133	104	0
3	302167	105	0
3	309990	106	0
3	318473	107	0
3	326742	108	0
3	335448	109	0
3	344158	110	0
3	352849	111	0
3	361737	112	0
3	370855	113	0
3	380186	114	0
3	389269	115	0
3	399315	116	0
3	408864	117	0
3	418895	118	0
3	428921	119	0
3	439198	120	0
3	449230	121	0
3	460007	122	0
3	470515	123	0
3	481530	124	2.2219942613752
3	492532	125	2.1596709975521
3	503794	126	1.8894331387547
3	514765	127	1.9135758166644
3	526518	128	2.0540839163866
3	537985	129	2.1299765114859
3	549981	130	1.593374629586
3	561967	131	-0.047903634139804
3	573937	132	0.030312081675511
3	586174	133	-0.064897888868581
3	598704	134	0.10802168874536
3	611510	135	-0.0497557142633
3	624035	136	-0.055867572841235
3	637699	137	-0.0085553559428089
3	650808	138	0.041701517160982
3	664474	139	0.047561781599653
3	678160	140	0.028731313557364
3	692152	141	-0.054766569577623
3	705854	142	0.0102753423783
3	720453	143	-0.0729428983666
3	734772	144	0.014196870999875
3	749682	145	0.022211705013179
3	764594	146	0.0047752809897066
3	779818	147	0.019526570434682
3	794755	148	0.013089853518178
3	810617	149	-0.0090582387568432
3	826193	150	-0.054747348378879
3	841768	151	0.10164703844814
3	858596	152	-0.056854708525352
3	874796	153	-0.050522710871883
3	891628	154	0.082494842805898
3	908452	155	0.034164765405004
3	925593	156	-0.019936257582158
3	942399	157	-0.028491328672972
3	960178	158	0.0076764976140122
3	977608	159	-0.045621059627738
3	995665	160	-0.015019283806906
3	1013708	161	0.032090983500238
3	1032052	162	-0.043859175492543
3	1050032	163	0.0427219880349
3	1068993	164	0.03388046368258
3	1087565	165	0.041269413393456
3	1106796	166	-0.0092962008621544
3	1125981	167	-0.032377658656332
3	1145476	168	-0.0021463327482358
3	1164564	169	-0.02056851565605
3	1184308	170	-0.015052578437608
3	1204335	171	-0.013025680247228
3	1223981	172	0.00955739028519
3	1244983	173	0.01282215393614
3	1265240	174	-0.00097224716562749
3	1286169	175	-0.027193966526537
3	1307076	176	0.073840194195508
3	1328316	177	-0.10436903486028
3	1349162	178	0.1173502929369
3	1371079	179	-0.055373845396097
3	1392625	180	0.0022048346162773
3	1414897	181	0.025382987146731
3	1437164	182	-0.075145586498547
3	1459800	183	0.020495001594536
3	1482072	184	0.077756137768738
3	1505448	185	-0.010959730062169
3	1528442	186	-0.030374909928069
3	1552176	187	0.0082095918408598
3	1575905	188	-0.0079377849539739
3	1600005	189	-0.018453956905287
3	1623716	190	-0.013525455992204
3	1648179	191	0.0026643908396373
3	1673011	192	-0.034940249943174
3	1697458	193	0.11235006092815
3	1723456	194	-0.044644047040492
3	1748647	195	-0.027538862724324
3	1774602	196	-0.04454822695814
3	1800539	197	0.067496217563749
3	1826866	198	0.030816132682375
3	1852771	199	-0.024418720679824
3	1879831	200	-0.0077581464080136
2	42	2	4.1061966058897
2	73	3	6.0195495591482
2	104	4	7.7148368984793
2	168	5	9.5879868385225
2	232	6	11.391389363371
2	296	7	13.513839789145
2	405	8	13.99235115225
2	514	9	13.890224446259
2	623	10	13.976677174468
2	789	11	13.994826577434
2	955	12	13.923680325528
2	1121	13	13.923542996629
2	1356	14	13.91007151508
2	1591	15	13.964598868005
2	1826	16	13.995233640105
2	2142	17	13.952304350403
2	2458	18	13.956911946491
2	2774	19	11.503494614513
2	3183	20	7.0034946145128
2	3592	21	7.8970062485022
2	4001	22	10.10483181514
2	4515	23	11.990706169653
2	5029	24	13.981089308816
2	5543	25	13.965594365916
2	6174	26	13.989059597438
2	6805	27	13.956378436291
2	7436	28	13.910982951869
2	8196	29	13.88918493646
2	8956	30	13.908189346099
2	9716	31	13.983992603337
2	10616	32	13.971500478752
2	11517	33	13.873081948087
2	12418	34	13.985133641064
2	13472	35	13.886848415199
2	14526	36	13.876205747321
2	15580	37	13.967912819823
2	16799	38	13.871047234884
2	18018	39	13.89239756926
2	19237	40	13.872267716837
2	20633	41	13.999815066161
2	22029	42	13.964707984752
2	23425	43	13.906584702837
2	25010	44	13.922364303169
2	26594	45	13.929034490574
2	28179	46	13.93922677479
2	29965	47	13.924399639922
2	31751	48	13.96850544848
2	33537	49	13.986686690277
2	35536	50	13.935194088209
2	37535	51	13.930097484484
2	39534	52	13.948393711536
2	41758	53	13.882971800906
2	43982	54	13.87138918183
2	46206	55	13.933780807857
2	48667	56	13.942265776542
2	51127	57	13.95140511482
2	53588	58	13.886548467774
2	56298	59	13.920721456567
2	59008	60	13.906796863726
2	61718	61	13.917803910668
2	64688	62	13.924582225601
2	67659	63	13.959688465288
2	70630	64	13.957318032989
2	73873	65	13.940553226951
2	77117	66	13.998651232829
2	80360	67	13.999179182528
2	83889	68	13.886099785112
2	87416	69	13.881868150404
2	90943	70	13.887636745651
2	94769	71	13.978686858166
2	98593	72	11.380505228889
2	102417	73	6.8805052288885
2	106551	74	2.3805052288885
2	110684	75	0
2	114816	76	0
2	119271	77	0
2	123725	78	0
2	128180	79	0
2	132968	80	0
2	137757	81	0
2	142544	82	0
2	147675	83	0
2	152807	84	0
2	158115	85	0
2	163606	86	0
2	174217	87	0
2	179706	88	0
2	190613	89	0
2	196473	90	0
2	202708	91	0
2	208948	92	0
2	215383	93	0
2	221624	94	0
2	228459	95	0
2	235091	96	0
2	242118	97	0
2	249152	98	0
2	256384	99	0
2	263409	100	0
2	271053	101	0
2	278466	102	0
2	286307	103	0
2	294133	104	0
2	302167	105	0
2	309990	106	0
2	318473	107	0
2	326742	108	0
2	335448	109	0
2	344158	110	0
2	352849	111	0
2	361737	112	0
2	370855	113	0
2	380186	114	0
2	389269	115	0
2	399315	116	0
2	408864	117	0
2	418895	118	0
2	428921	119	0
2	439198	120	0
2	449230	121	0
2	460007	122	0
2	470515	123	0
2	481530	124	2.2219942613752
2	492532	125	4.3816652589273
2	503794	126	6.271098397682
2	514765	127	8.1846742143464
2	526518	128	10.238758130733
2	537985	129	12.368734642219
2	549981	130	13.962109271805
2	561967	131	13.914205637665
2	573937	132	13.944517719341
2	586174	133	13.879619830472
2	598704	134	13.987641519217
2	611510	135	13.937885804954
2	624035	136	13.882018232113
2	637699	137	13.87346287617
2	650808	138	13.915164393331
2	664474	139	13.962726174931
2	678160	140	13.991457488488
2	692152	141	13.93669091891
2	705854	142	13.946966261289
2	720453	143	13.874023362922
2	734772	144	13.888220233922
2	749682	145	13.910431938935
2	764594	146	13.915207219925
2	779818	147	13.934733790359
2	794755	148	13.947823643878
2	810617	149	13.938765405121
2	826193	150	13.884018056742
2	841768	151	13.98566509519
2	858596	152	13.928810386665
2	874796	153	13.878287675793
2	891628	154	13.960782518599
2	908452	155	13.994947284004
2	925593	156	13.975011026422
2	942399	157	13.946519697749
2	960178	158	13.954196195363
2	977608	159	13.908575135735
2	995665	160	13.893555851928
2	1013708	161	13.925646835428
2	1032052	162	13.881787659936
2	1050032	163	13.924509647971
2	1068993	164	13.958390111653
2	1087565	165	13.999659525047
2	1106796	166	13.990363324184
2	1125981	167	13.957985665528
2	1145476	168	13.95583933278
2	1164564	169	13.935270817124
2	1184308	170	13.920218238686
2	1204335	171	13.907192558439
2	1223981	172	13.916749948724
2	1244983	173	13.92957210266
2	1265240	174	13.928599855495
2	1286169	175	13.901405888968
2	1307076	176	13.975246083164
2	1328316	177	13.870877048303
2	1349162	178	13.98822734124
2	1371079	179	13.932853495844
2	1392625	180	13.93505833046
2	1414897	181	13.960441317607
2	1437164	182	13.885295731109
2	1459800	183	13.905790732703
2	1482072	184	13.983546870472
2	1505448	185	13.97258714041
2	1528442	186	13.942212230482
2	1552176	187	13.950421822323
2	1575905	188	13.942484037369
2	1600005	189	13.924030080463
2	1623716	190	13.910504624471
2	1648179	191	13.913169015311
2	1673011	192	13.878228765368
2	1697458	193	13.990578826296
2	1723456	194	13.945934779255
2	1748647	195	13.918395916531
2	1774602	196	13.873847689573
2	1800539	197	13.941343907136
2	1826866	198	13.972160039819
2	1852771	199	13.947741319139
2	1879831	200	13.939983172731
1	11	1	1578.4613427464
1	42	2	1578.4613427464
1	73	3	1579.5715045081
1	104	4	1581.5561876604
1	168	5	1586.4898643075
1	232	6	1592.7177137369
1	296	7	1600.2534592729
1	405	8	1609.1769437566
1	514	9	1619.0710908128
1	623	10	1629.0037637418
1	789	11	1638.9341008412
1	955	12	1649.1129276818
1	1121	13	1661.0453354148
1	1356	14	1673.5713017788
1	1591	15	1682.4825292248
1	1826	16	1691.8131453674
1	2142	17	1695.5671389326
1	2458	18	1697.3762977775
1	2774	19	1698.7149431584
1	3183	20	1699.9531973498
1	3592	21	1700.8030368192
1	4001	22	1701.4822415169
1	4515	23	1709.488976148
1	5029	24	1720.5600911779
1	5543	25	1733.5392477075
1	6174	26	1747.3162704222
1	6805	27	1761.1584832035
1	7436	28	1775.0702432813
1	8196	29	1788.9649324082
1	8956	30	1802.8657313576
1	9716	31	1816.7641749373
1	10616	32	1830.6712168986
1	11517	33	1844.5682703312
1	12418	34	1858.4757581847
1	13472	35	1872.3796654344
1	14526	36	1886.2682729438
1	15580	37	1900.1617258992
1	16799	38	1914.0672918586
1	18018	39	1927.95593304
1	19237	40	1941.8192613758
1	20633	41	1955.7024557721
1	22029	42	1969.5841215905
1	23425	43	1983.4787444612
1	25010	44	1997.3802024601
1	26594	45	2011.2714909082
1	28179	46	2025.1553793969
1	29965	47	2039.0458765477
1	31751	48	2052.9329446238
1	33537	49	2066.8462265795
1	35536	50	2080.7728807703
1	37535	51	2094.6498483503
1	39534	52	2107.3969092406
1	41758	53	2116.410831539
1	43982	54	2120.9360540062
1	46206	55	2120.5048353085
1	48667	56	2120.0344859883
1	51127	57	2119.5641121576
1	53588	58	2119.0944308629
1	56298	59	2118.6240558857
1	59008	60	2118.1536666537
1	61718	61	2117.6824006466
1	64688	62	2117.2121830918
1	67659	63	2116.7411177447
1	70630	64	2116.2712858524
1	73873	65	2115.8005333487
1	77117	66	2114.7955725584
1	80360	67	2112.8364102887
1	83889	68	2110.6440530941
1	87416	69	2106.1704403665
1	90943	70	2101.6975887315
1	94769	71	2096.6391956527
1	98593	72	2089.5697793076
1	102417	73	2082.9376931852
1	106551	74	2078.419863862
1	110684	75	2076.1849181512
1	114816	76	2075.9235266512
1	119271	77	2075.9235266512
1	123725	78	2075.9235266512
1	128180	79	2075.9235266512
1	132968	80	2075.9235266512
1	137757	81	2075.9235266512
1	142544	82	2075.9235266512
1	147675	83	2075.9235266512
1	152807	84	2075.9235266512
1	158115	85	2075.9235266512
1	163606	86	2075.9235266512
1	174217	87	2075.9235266512
1	179706	88	2075.9235266512
1	190613	89	2075.9235266512
1	196473	90	2075.9235266512
1	202708	91	2075.9235266512
1	208948	92	2075.9235266512
1	215383	93	2075.9235266512
1	221624	94	2075.9235266512
1	228459	95	2075.9235266512
1	235091	96	2075.9235266512
1	242118	97	2075.9235266512
1	249152	98	2075.9235266512
1	256384	99	2075.9235266512
1	263409	100	2075.9235266512
1	271053	101	2075.9235266512
1	278466	102	2075.9235266512
1	286307	103	2075.9235266512
1	294133	104	2075.9235266512
1	302167	105	2075.9235266512
1	309990	106	2075.9235266512
1	318473	107	2075.9235266512
1	326742	108	2075.9235266512
1	335448	109	2075.9235266512
1	344158	110	2075.9235266512
1	352849	111	2075.9235266512
1	361737	112	2075.9235266512
1	370855	113	2075.9235266512
1	380186	114	2075.9235266512
1	389269	115	2075.9235266512
1	399315	116	2075.9235266512
1	408864	117	2075.9235266512
1	418895	118	2075.9235266512
1	428921	119	2075.9235266512
1	439198	120	2075.9235266512
1	449230	121	2075.9235266512
1	460007	122	2075.9235266512
1	470515	123	2075.9235266512
1	481530	124	2075.9235266512
1	492532	125	2075.1249021161
1	503794	126	2072.86423006
1	514765	127	2068.9174167952
1	526518	128	2063.5465694079
1	537985	129	2056.7840990741
1	549981	130	2048.4871348105
1	561967	131	2038.7371108737
1	573937	132	2028.5646912949
1	586174	133	2018.3838472413
1	598704	134	2008.2254692623
1	611510	135	1998.0370962676
1	624035	136	1987.8723763861
1	637699	137	1977.7352778362
1	650808	138	1968.0349910427
1	664474	139	1958.3397735637
1	678160	140	1948.6021926794
1	692152	141	1938.8772351909
1	705854	142	1929.1461740322
1	720453	143	1919.4259242518
1	734772	144	1909.7162718913
1	749682	145	1900.0064946283
1	764594	146	1890.2926928708
1	779818	147	1880.5856528329
1	794755	148	1870.8754119454
1	810617	149	1860.9048139649
1	826193	150	1850.9378715828
1	841768	151	1840.9644936612
1	858596	152	1830.9834026285
1	874796	153	1821.0187012684
1	891628	154	1811.034208905
1	908452	155	1801.0597736975
1	925593	156	1791.0844194526
1	942399	157	1781.1108008912
1	960178	158	1771.1343694674
1	977608	159	1761.3842561403
1	995665	160	1751.7881461149
1	1013708	161	1742.1872167662
1	1032052	162	1732.436735265
1	1050032	163	1722.6792902993
1	1068993	164	1712.9214289747
1	1087565	165	1703.179755724
1	1106796	166	1693.428763791
1	1125981	167	1683.6651881458
1	1145476	168	1673.9025948867
1	1164564	169	1664.1512354324
1	1184308	170	1654.3922483223
1	1204335	171	1644.6436635256
1	1223981	172	1634.8820946105
1	1244983	173	1625.132721534
1	1265240	174	1615.368364349
1	1286169	175	1605.6200321727
1	1307076	176	1595.8723428259
1	1328316	177	1586.1139959991
1	1349162	178	1576.3562804013
1	1371079	179	1566.5952746831
1	1392625	180	1556.8313509338
1	1414897	181	1547.0609386619
1	1437164	182	1537.1555227423
1	1459800	183	1527.245795168
1	1482072	184	1517.328113649
1	1505448	185	1507.4089911301
1	1528442	186	1497.4850031873
1	1552176	187	1488.2187471325
1	1575905	188	1479.0920297839
1	1600005	189	1469.9601167189
1	1623716	190	1460.843782682
1	1648179	191	1451.7192762299
1	1673011	192	1443.1988575729
1	1697458	193	1435.1599486005
1	1723456	194	1427.1218911437
1	1748647	195	1419.0822943645
1	1774602	196	1411.0424706573
1	1800539	197	1404.3323235679
1	1826866	198	1398.3851556871
1	1852771	199	1392.4281800315
1	1879831	200	1386.4698978728
0	11	1	2414.8476884116
0	42	2	2414.8476884116
0	73	3	2411.8243290941
0	104	4	2407.1592244543
0	168	5	2402.288200066
0	232	6	2396.1394374635
0	296	7	2388.6993875942
0	405	8	2379.889221533
0	514	9	2370.1207192459
0	623	10	2360.3141803208
0	789	11	2350.5099475634
0	955	12	2341.0010868867
0	1121	13	2334.5620136983
0	1356	14	2337.6803779466
0	1591	15	2348.3497968862
0	1826	16	2358.6961674725
0	2142	17	2371.6616533546
0	2458	18	2385.4706804305
0	2774	19	2399.3588350668
0	3183	20	2412.4541998667
0	3592	21	2421.4418196582
0	4001	22	2428.417609864
0	4515	23	2431.468930052
0	5029	24	2433.1513403206
0	5543	25	2435.1237040944
0	6174	26	2437.2173147583
0	6805	27	2438.6437980286
0	7436	28	2439.5074353185
0	8196	29	2440.517813261
0	8956	30	2441.5286354903
0	9716	31	2442.5392864447
0	10616	32	2443.5505626462
0	11517	33	2444.5611125134
0	12418	34	2445.5724211388
0	13472	35	2446.5834693939
0	14526	36	2447.5934051003
0	15580	37	2448.6036931522
0	16799	38	2449.6148620235
0	18018	39	2450.6248001783
0	19237	40	2449.5880553933
0	20633	41	2448.4757357414
0	22029	42	2447.3635385588
0	23425	43	2446.250303259
0	25010	44	2445.1365203297
0	26594	45	2444.0235521834
0	28179	46	2442.9111769209
0	29965	47	2441.7982721732
0	31751	48	2440.6856421625
0	33537	49	2439.7151308154
0	35536	50	2438.7725309408
0	37535	51	2437.9056889905
0	39534	52	2432.8785054281
0	41758	53	2422.5273191113
0	43982	54	2409.439604845
0	46206	55	2395.517893619
0	48667	56	2381.592286239
0	51127	57	2367.6659531716
0	53588	58	2353.7601239877
0	56298	59	2339.8337569573
0	59008	60	2325.9069679289
0	61718	61	2311.9542202253
0	64688	62	2298.0325140053
0	67659	63	2284.0857072632
0	70630	64	2270.1754193477
0	73873	65	2256.2378749268
0	77117	66	2242.3725172955
0	80360	67	2228.5568932705
0	83889	68	2214.8035730832
0	87416	69	2201.6130456962
0	90943	70	2188.4247624045
0	94769	71	2175.5107078577
0	98593	72	2163.5018647154
0	102417	73	2152.2359160049
0	106551	74	2144.5614629743
0	110684	75	2140.764952604
0	114816	76	2140.3209259163
0	119271	77	2140.3209259163
0	123725	78	2140.3209259163
0	128180	79	2140.3209259163
0	132968	80	2140.3209259163
0	137757	81	2140.3209259163
0	142544	82	2140.3209259163
0	147675	83	2140.3209259163
0	152807	84	2140.3209259163
0	158115	85	2140.3209259163
0	163606	86	2140.3209259163
0	174217	87	2140.3209259163
0	179706	88	2140.3209259163
0	190613	89	2140.3209259163
0	196473	90	2140.3209259163
0	202708	91	2140.3209259163
0	208948	92	2140.3209259163
0	215383	93	2140.3209259163
0	221624	94	2140.3209259163
0	228459	95	2140.3209259163
0	235091	96	2140.3209259163
0	242118	97	2140.3209259163
0	249152	98	2140.3209259163
0	256384	99	2140.3209259163
0	263409	100	2140.3209259163
0	271053	101	2140.3209259163
0	278466	102	2140.3209259163
0	286307	103	2140.3209259163
0	294133	104	2140.3209259163
0	302167	105	2140.3209259163
0	309990	106	2140.3209259163
0	318473	107	2140.3209259163
0	326742	108	2140.3209259163
0	335448	109	2140.3209259163
0	344158	110	2140.3209259163
0	352849	111	2140.3209259163
0	361737	112	2140.3209259163
0	370855	113	2140.3209259163
0	380186	114	2140.3209259163
0	389269	115	2140.3209259163
0	399315	116	2140.3209259163
0	408864	117	2140.3209259163
0	418895	118	2140.3209259163
0	428921	119	2140.3209259163
0	439198	120	2140.3209259163
0	449230	121	2140.3209259163
0	460007	122	2140.3209259163
0	470515	123	2140.3209259163
0	481530	124	2140.3209259163
0	492532	125	2139.2968867624
0	503794	126	2136.7389751441
0	514765	127	2133.0417300543
0	526518	128	2128.0104965516
0	537985	129	2121.6756363601
0	549981	130	2113.9033126336
0	561967	131	2104.7698103111
0	573937	132	2095.2406216187
0	586174	133	2085.7035411549
0	598704	134	2076.1875061716
0	611510	135	2066.6433728429
0	624035	136	2057.1213969737
0	637699	137	2047.5816524108
0	650808	138	2037.6029490368
0	664474	139	2027.6294604754
0	678160	140	2017.6123925993
0	692152	141	2007.6083104342
0	705854	142	1997.5979494115
0	720453	143	1987.5987100747
0	734772	144	1977.6103723238
0	749682	145	1967.6219060847
0	764594	146	1957.6292998412
0	779818	147	1947.6436493916
0	794755	148	1937.6560055723
0	810617	149	1927.9261270026
0	826193	150	1918.1998157738
0	841768	151	1908.4672243788
0	858596	152	1898.7271060897
0	874796	153	1889.0029817786
0	891628	154	1879.2595442766
0	908452	155	1869.5259211212
0	925593	156	1859.791401117
0	942399	157	1850.0585748916
0	960178	158	1840.3230037142
0	977608	159	1830.3485841108
0	995665	160	1820.2447044594
0	1013708	161	1810.1357504753
0	1032052	162	1800.1565797509
0	1050032	163	1790.2001305029
0	1068993	164	1780.2432564036
0	1087565	165	1770.3029005365
0	1106796	166	1760.3530359312
0	1125981	167	1750.3903309678
0	1145476	168	1740.4286284258
0	1164564	169	1730.4783888039
0	1184308	170	1720.5203659586
0	1204335	171	1710.5729575836
0	1223981	172	1700.6123002779
0	1244983	173	1690.6640875464
0	1265240	174	1680.700585103
0	1286169	175	1670.7534345009
0	1307076	176	1660.8069398387
0	1328316	177	1650.8495703356
0	1349162	178	1640.8928449352
0	1371079	179	1630.9327623127
0	1392625	180	1620.9697021447
0	1414897	181	1611.1812420461
0	1437164	182	1601.3685927682
0	1459800	183	1591.5516722162
0	1482072	184	1581.7268722097
0	1505448	185	1571.9006446985
0	1528442	186	1562.0695973291
0	1552176	187	1551.629357824
0	1575905	188	1541.0783051042
0	1600005	189	1530.521245814
0	1623716	190	1519.9821968487
0	1648179	191	1509.4337000637
0	1673011	192	1498.4289621838
0	1697458	193	1487.0217380667
0	1723456	194	1475.6157222515
0	1748647	195	1464.2075221355
0	1774602	196	1452.7990000077
0	1800539	197	1440.6314903779
0	1826866	198	1428.0171185784
0	1852771	199	1415.3819437806
0	1879831	200	1402.7439977969
9	232	6	3.9274001426868
9	296	7	5.2041356246368
9	405	8	5.7574507674447
9	514	9	7.0006276784153
9	623	10	8.2432295261252
9	789	11	3.9110016848773
9	955	12	1.7792042638201
9	1121	13	2.0579365757541
9	1356	14	2.3818636967155
9	1591	15	1.7037407999188
9	1826	16	2.0152488537881
9	2142	17	2.1655550639215
9	2458	18	1.906797412239
9	2774	19	2.2849654495652
9	3183	20	1.9716653983805
9	3592	21	0.973
9	4001	22	0.973
9	4515	23	0.973
9	5029	24	2.2554772362628
9	5543	25	5.6120472675651
9	6174	26	7.5119842129131
9	6805	27	8.4455276517466
9	7436	28	3.3560730035355
9	8196	29	1.8466200733259
9	8956	30	2.0660268329645
9	9716	31	2.2281549844786
9	10616	32	1.9335288120447
9	11517	33	1.9767670407741
9	12418	34	1.9283950769156
9	13472	35	2.0949799016024
9	14526	36	1.9290667558988
9	15580	37	2.3468857079218
9	16799	38	1.8793040227889
9	18018	39	1.8954681876561
9	19237	40	2.2553467174174
9	20633	41	1.7429567241042
9	22029	42	2.0192482635441
9	23425	43	2.1827359052182
9	25010	44	2.0164367628106
9	26594	45	2.1348602115454
9	28179	46	2.0878872407227
9	29965	47	1.8642059318509
9	31751	48	2.0401536442479
9	33537	49	1.9464315106901
9	35536	50	2.2632042711189
9	37535	51	1.851180617826
9	39534	52	2.2486511283506
9	41758	53	2.0047870143605
9	43982	54	2.1193583924862
9	46206	55	1.9065956504161
9	48667	56	1.8305118457369
9	51127	57	2.2544630998412
9	53588	58	1.9497933768092
9	56298	59	2.199742909699
9	59008	60	1.9416842431598
9	61718	61	2.0340583936544
9	64688	62	1.8947902862501
9	67659	63	2.3236156337703
9	70630	64	1.8116807487081
9	73873	65	2.1067187558746
9	77117	66	2.0440470145686
9	80360	67	1.9485115452067
9	83889	68	2.1878187851485
9	87416	69	1.6791237400594
9	90943	70	2.2755265645048
9	94769	71	2.0225291815531
9	98593	72	1.9399893034582
9	102417	73	2.0029455902709
9	106551	74	0.973
9	110684	75	0.973
9	114816	76	0.973
9	119271	77	0.973
9	123725	78	0.973
9	128180	79	0.973
9	132968	80	0.973
9	137757	81	0.973
9	142544	82	1.1111121928442
9	147675	83	1.1105198636326
9	152807	84	1.1102048131311
9	158115	85	1.1100724261592
9	163606	86	1.1100263596434
9	174217	87	1.1100096669672
9	179706	88	1.1100034420258
9	190613	89	1.11000121776
9	196473	90	0.973
9	202708	91	0.973
9	208948	92	0.973
9	215383	93	0.973
9	221624	94	0.973
9	228459	95	0.973
9	235091	96	0.973
9	242118	97	0.973
9	249152	98	0.973
9	256384	99	0.973
9	263409	100	0.973
9	271053	101	0.973
9	278466	102	0.973
9	286307	103	0.973
9	294133	104	0.973
9	302167	105	0.973
9	309990	106	0.973
9	318473	107	0.973
9	326742	108	0.973
9	335448	109	0.973
9	344158	110	0.973
9	352849	111	0.973
9	361737	112	0.973
9	370855	113	0.973
9	380186	114	0.973
9	389269	115	0.973
9	399315	116	0.973
9	408864	117	0.973
9	418895	118	0.973
9	428921	119	0.973
9	439198	120	0.973
9	449230	121	0.973
9	460007	122	0.973
9	470515	123	0.973
9	481530	124	1.4178069873607
9	492532	125	2.6632254163472
9	503794	126	3.4635077952743
9	514765	127	4.7670103137615
9	526518	128	5.7201137229883
9	537985	129	6.4069038655259
9	549981	130	8.0895409233779
9	561967	131	6.3226518416177
9	573937	132	2.1952654366489
9	586174	133	2.1269451191026
9	598704	134	1.7855558300948
9	611510	135	1.9192758908256
9	624035	136	2.1682894028507
9	637699	137	1.9700401564216
9	650808	138	2.1132780923625
9	664474	139	2.0967521261933
9	678160	140	2.0676394119274
9	692152	141	1.7435781492056
9	705854	142	2.4293300508524
9	720453	143	1.945929812323
9	734772	144	2.0913101916029
9	749682	145	2.0990577040159
9	764594	146	1.7388095837429
9	779818	147	2.1877632083839
9	794755	148	1.9005145370032
9	810617	149	2.1968042961102
9	826193	150	2.0500150684712
9	841768	151	1.8048797568188
9	858596	152	2.3009863061562
9	874796	153	2.0216810197987
9	891628	154	1.780515749493
9	908452	155	2.3632863193112
9	925593	156	1.9812120211058
9	942399	157	1.7694840250872
9	960178	158	2.0512663796081
9	977608	159	1.9983405927992
9	995665	160	1.9242939949574
9	1013708	161	2.4276901516778
9	1032052	162	1.9562892484012
9	1050032	163	1.9563851254971
9	1068993	164	2.1691450530814
9	1087565	165	2.0288611293971
9	1106796	166	1.9548839267273
9	1125981	167	1.8279616767825
9	1145476	168	2.0240172755128
9	1164564	169	2.0779186428145
9	1184308	170	2.0388041841175
9	1204335	171	1.9303371884883
9	1223981	172	2.0876231595316
9	1244983	173	1.9356815008423
9	1265240	174	2.1044779476447
9	1286169	175	2.3055260701722
9	1307076	176	1.8307829891951
9	1328316	177	2.2662806746104
9	1349162	178	1.7548306755801
9	1371079	179	2.2720005806138
9	1392625	180	1.8301239210578
9	1414897	181	1.8855872738616
9	1437164	182	2.4706362910478
9	1459800	183	1.7428870964557
9	1482072	184	2.0695011198832
9	1505448	185	2.037269652579
9	1528442	186	1.9047507710889
9	1552176	187	2.0593117837366
9	1575905	188	1.9317252793733
9	1600005	189	2.2537691417481
9	1623716	190	1.8956369390877
9	1648179	191	2.2826056823448
9	1673011	192	2.0460615121224
9	1697458	193	1.8112959202592
9	1723456	194	2.0672622723702
9	1748647	195	2.1969438144724
9	1774602	196	1.8130641466748
9	1800539	197	2.3236278812957
9	1826866	198	2.0216425257974
9	1852771	199	1.7379786993673
9	1879831	200	1.9698217485503
8	232	6	1.7932460927567
8	296	7	1.9587017235276
8	405	8	1.7806746143266
8	514	9	1.8842620940111
8	623	10	1.9413380167005
8	789	11	0.5583961215709
8	955	12	-0.073857417434921
8	1121	13	0.0092065779981212
8	1356	14	0.10214026641101
8	1591	15	-0.096765000070445
8	1826	16	-0.0036033386224883
8	2142	17	0.039975998615846
8	2458	18	-0.036115438612178
8	2774	19	0.074191348995083
8	3183	20	-0.018364551486448
8	3592	21	-0.84955461610103
8	4001	22	-1.1580047743662
8	4515	23	-4.4608324981877
8	5029	24	0.38092674279862
8	5543	25	1.7156944106473
8	6174	26	2.0360211738362
8	6805	27	1.9703013633797
8	7436	28	0.39196811840698
8	8196	29	-0.054819778876846
8	8956	30	0.010270397982096
8	9716	31	0.056614504742901
8	10616	32	-0.029954661100637
8	11517	33	-0.016613695521373
8	12418	34	-0.030163104203529
8	13472	35	0.018933158169965
8	14526	36	-0.029659791311714
8	15580	37	0.091685234303586
8	16799	38	-0.045763628156855
8	18018	39	-0.039857979963999
8	19237	40	0.065247988859191
8	20633	41	-0.08489584519295
8	22029	42	-0.0022564603248618
8	23425	43	0.045091817758511
8	25010	44	-0.0043246553349299
8	26594	45	0.029991914208512
8	28179	46	0.015533079409506
8	29965	47	-0.0495849183877
8	31751	48	0.0027827199501917
8	33537	49	-0.024452327373437
8	35536	50	0.067736270520836
8	37535	51	-0.053276539789513
8	39534	52	0.063070073074195
8	41758	53	-0.0090693579427903
8	43982	54	0.024193826443517
8	46206	55	-0.037865431425162
8	48667	56	-0.058954789221753
8	51127	57	0.065368110591081
8	53588	58	-0.024500538792926
8	56298	59	0.048295230567454
8	59008	60	-0.027506586005911
8	61718	61	-3.7945064249811e-05
8	64688	62	-0.040341942564119
8	67659	63	0.08445247764932
8	70630	64	-0.065610413609539
8	73873	65	0.021565600365866
8	77117	66	0.0028431761614058
8	80360	67	-0.024848260174041
8	83889	68	0.044910243332852
8	87416	69	-0.10373160347343
8	90943	70	0.072071757072118
8	94769	71	-0.0031103654555054
8	98593	72	-0.02690946418792
8	102417	73	-0.0079017184418628
8	106551	74	-2.3982081225927
8	110684	75	-3.1547147577576
8	114816	76	-2.8111589805542
8	119271	77	-2.2363684301998
8	123725	78	-1.6725534009427
8	128180	79	-0.91763058940095
8	132968	80	-0.45977705147342
8	137757	81	-0.16111585056513
8	142544	82	-0.062747749127738
8	147675	83	-0.021508816112765
8	152807	84	-0.0076593801660245
8	158115	85	-0.002891262698174
8	163606	86	-0.00097427582999232
8	174217	87	-0.00034835721289857
8	179706	88	-0.00012934429770995
8	190613	89	-4.6148643624144e-05
8	196473	90	-2.5249602854094e-05
8	202708	91	0
8	208948	92	0
8	215383	93	0
8	221624	94	0
8	228459	95	0
8	235091	96	0
8	242118	97	0
8	249152	98	0
8	256384	99	0
8	263409	100	0
8	271053	101	0
8	278466	102	0
8	286307	103	0
8	294133	104	0
8	302167	105	0
8	309990	106	0
8	318473	107	0
8	326742	108	0
8	335448	109	0
8	344158	110	0
8	352849	111	0
8	361737	112	0
8	370855	113	0
8	380186	114	0
8	389269	115	0
8	399315	116	0
8	408864	117	0
8	418895	118	0
8	428921	119	0
8	439198	120	0
8	449230	121	0
8	460007	122	0
8	470515	123	0
8	481530	124	1.0342890448911
8	492532	125	1.9534991256854
8	503794	126	1.8215262676082
8	514765	127	2.0079014630048
8	526518	128	1.9518008967979
8	537985	129	1.8303671085183
8	549981	130	2.0315273079113
8	561967	131	1.280444437214
8	573937	132	0.047740650703199
8	586174	133	0.026573255173863
8	598704	134	-0.072883409399074
8	611510	135	-0.03210226023104
8	624035	136	0.040968228552956
8	637699	137	-0.017607946088537
8	650808	138	0.024355108910239
8	664474	139	0.018833703720011
8	678160	140	0.0098656048648991
8	692152	141	-0.084429220608435
8	705854	142	0.1161646957742
8	720453	143	-0.026468190946616
8	734772	144	0.016224144210573
8	749682	145	0.017954750047066
8	764594	146	-0.086752803607379
8	779818	147	0.045634120837786
8	794755	148	-0.038706488069147
8	810617	149	0.048007548274473
8	826193	150	0.0042608453403226
8	841768	151	-0.066847989798989
8	858596	152	0.078394003864377
8	874796	153	-0.0043714303267191
8	891628	154	-0.074117545965127
8	908452	155	0.096223014865537
8	925593	156	-0.016548605826683
8	942399	157	-0.077465037947986
8	960178	158	0.0064275499852364
8	977608	159	-0.0090893771266565
8	995665	160	-0.030336456936784
8	1013708	161	0.11574898932362
8	1032052	162	-0.023424426829443
8	1050032	163	-0.022742380010895
8	1068993	164	0.039277818629053
8	1087565	165	-0.0022900215862336
8	1106796	166	-0.023574351174757
8	1125981	167	-0.059759290162473
8	1145476	168	-0.0011746940901496
8	1164564	169	0.014468565683346
8	1184308	170	0.0027157383551817
8	1204335	171	-0.028823833672796
8	1223981	172	0.017632111532148
8	1244983	173	-0.026961142108776
8	1265240	174	0.022797123109923
8	1286169	175	0.0799381512939
8	1307076	176	-0.059468666124157
8	1328316	177	0.067985334468538
8	1349162	178	-0.081778387010562
8	1371079	179	0.070096094980835
8	1392625	180	-0.059579664238262
8	1414897	181	-0.041892834790051
8	1437164	182	0.12803532975726
8	1459800	183	-0.085611065994017
8	1482072	184	0.011441160412506
8	1505448	185	0.0017819580738418
8	1528442	186	-0.036686353047843
8	1552176	187	0.009202043521217
8	1575905	188	-0.028092538847122
8	1600005	189	0.065925904582256
8	1623716	190	-0.039613456092775
8	1648179	191	0.073309048379306
8	1673011	192	0.0029606359754677
8	1697458	193	-0.065084001887589
8	1723456	194	0.010940920417196
8	1748647	195	0.047974466911983
8	1774602	196	-0.064414862366393
8	1800539	197	0.08486426799791
8	1826866	198	-0.0045823919074603
8	1852771	199	-0.086670791869984
8	1879831	200	-0.016948586606885
7	168	5	4.0332649588119
7	232	6	5.8265110515686
7	296	7	7.7852127750962
7	405	8	9.5658873894228
7	514	9	11.450149483434
7	623	10	13.391487500134
7	789	11	13.949883621705
7	955	12	13.87602620427
7	1121	13	13.885232782268
7	1356	14	13.987373048679
7	1591	15	13.890608048609
7	1826	16	13.887004709987
7	2142	17	13.926980708602
7	2458	18	13.89086526999
7	2774	19	13.965056618985
7	3183	20	13.946692067499
7	3592	21	13.097137451398
7	4001	22	11.939132677032
7	4515	23	7.4783001788439
7	5029	24	7.8592269216425
7	5543	25	9.5749213322898
7	6174	26	11.610942506126
7	6805	27	13.581243869506
7	7436	28	13.973211987913
7	8196	29	13.918392209036
7	8956	30	13.928662607018
7	9716	31	13.985277111761
7	10616	32	13.95532245066
7	11517	33	13.938708755139
7	12418	34	13.908545650935
7	13472	35	13.927478809105
7	14526	36	13.897819017794
7	15580	37	13.989504252097
7	16799	38	13.94374062394
7	18018	39	13.903882643976
7	19237	40	13.969130632835
7	20633	41	13.884234787642
7	22029	42	13.881978327318
7	23425	43	13.927070145076
7	25010	44	13.922745489741
7	26594	45	13.95273740395
7	28179	46	13.968270483359
7	29965	47	13.918685564972
7	31751	48	13.921468284922
7	33537	49	13.897015957548
7	35536	50	13.964752228069
7	37535	51	13.91147568828
7	39534	52	13.974545761354
7	41758	53	13.965476403411
7	43982	54	13.989670229855
7	46206	55	13.951804798429
7	48667	56	13.892850009208
7	51127	57	13.958218119799
7	53588	58	13.933717581006
7	56298	59	13.982012811573
7	59008	60	13.954506225567
7	61718	61	13.954468280503
7	64688	62	13.914126337939
7	67659	63	13.998578815588
7	70630	64	13.932968401979
7	73873	65	13.954534002345
7	77117	66	13.957377178506
7	80360	67	13.932528918332
7	83889	68	13.977439161665
7	87416	69	13.873707558191
7	90943	70	13.945779315263
7	94769	71	13.942668949808
7	98593	72	13.91575948562
7	102417	73	13.907857767178
7	106551	74	11.509649644586
7	110684	75	8.354934886828
7	114816	76	5.5437759062738
7	119271	77	3.307407476074
7	123725	78	1.6348540751313
7	128180	79	0.71722348573033
7	132968	80	0.25744643425691
7	137757	81	0.096330583691781
7	142544	82	0.033582834564042
7	147675	83	0.012074018451278
7	152807	84	0.0044146382852531
7	158115	85	0.0015233755870791
7	163606	86	0.00054909975708676
7	174217	87	0.00020074254418819
7	179706	88	7.1398246478238e-05
7	190613	89	2.5249602854094e-05
7	196473	90	0
7	202708	91	0
7	208948	92	0
7	215383	93	0
7	221624	94	0
7	228459	95	0
7	235091	96	0
7	242118	97	0
7	249152	98	0
7	256384	99	0
7	263409	100	0
7	271053	101	0
7	278466	102	0
7	286307	103	0
7	294133	104	0
7	302167	105	0
7	309990	106	0
7	318473	107	0
7	326742	108	0
7	335448	109	0
7	344158	110	0
7	352849	111	0
7	361737	112	0
7	370855	113	0
7	380186	114	0
7	389269	115	0
7	399315	116	0
7	408864	117	0
7	418895	118	0
7	428921	119	0
7	439198	120	0
7	449230	121	0
7	460007	122	0
7	470515	123	0
7	481530	124	1.0342890448911
7	492532	125	2.9877881705766
7	503794	126	4.8093144381847
7	514765	127	6.8172159011895
7	526518	128	8.7690167979874
7	537985	129	10.599383906506
7	549981	130	12.630911214417
7	561967	131	13.911355651631
7	573937	132	13.959096302334
7	586174	133	13.985669557508
7	598704	134	13.912786148109
7	611510	135	13.880683887878
7	624035	136	13.921652116431
7	637699	137	13.904044170342
7	650808	138	13.928399279253
7	664474	139	13.947232982973
7	678160	140	13.957098587838
7	692152	141	13.872669367229
7	705854	142	13.988834063003
7	720453	143	13.962365872057
7	734772	144	13.978590016267
7	749682	145	13.996544766314
7	764594	146	13.909791962707
7	779818	147	13.955426083545
7	794755	148	13.916719595476
7	810617	149	13.96472714375
7	826193	150	13.96898798909
7	841768	151	13.902139999291
7	858596	152	13.980534003156
7	874796	153	13.976162572829
7	891628	154	13.902045026864
7	908452	155	13.998268041729
7	925593	156	13.981719435903
7	942399	157	13.904254397955
7	960178	158	13.91068194794
7	977608	159	13.901592570813
7	995665	160	13.871256113877
7	1013708	161	13.9870051032
7	1032052	162	13.963580676371
7	1050032	163	13.94083829636
7	1068993	164	13.980116114989
7	1087565	165	13.977826093403
7	1106796	166	13.954251742228
7	1125981	167	13.894492452065
7	1145476	168	13.893317757975
7	1164564	169	13.907786323659
7	1184308	170	13.910502062014
7	1204335	171	13.881678228341
7	1223981	172	13.899310339873
7	1244983	173	13.872349197764
7	1265240	174	13.895146320874
7	1286169	175	13.975084472168
7	1307076	176	13.915615806044
7	1328316	177	13.983601140513
7	1349162	178	13.901822753502
7	1371079	179	13.971918848483
7	1392625	180	13.912339184245
7	1414897	181	13.870446349455
7	1437164	182	13.998481679212
7	1459800	183	13.912870613218
7	1482072	184	13.92431177363
7	1505448	185	13.926093731704
7	1528442	186	13.889407378656
7	1552176	187	13.898609422178
7	1575905	188	13.87051688333
7	1600005	189	13.936442787913
7	1623716	190	13.89682933182
7	1648179	191	13.970138380199
7	1673011	192	13.973099016175
7	1697458	193	13.908015014287
7	1723456	194	13.918955934704
7	1748647	195	13.966930401616
7	1774602	196	13.90251553925
7	1800539	197	13.987379807248
7	1826866	198	13.98279741534
7	1852771	199	13.89612662347
7	1879831	200	13.879178036863
6	104	4	1578.4506684253
6	168	5	1578.4506684253
6	232	6	1579.5537930429
6	296	7	1581.4165868293
6	405	8	1586.3131998433
6	514	9	1592.5493268352
6	623	10	1600.0762428036
6	789	11	1608.9662610246
6	955	12	1618.8381252186
6	1121	13	1628.7265753681
6	1356	14	1638.6555796713
6	1591	15	1648.8046840783
6	1826	16	1660.6325348346
6	2142	17	1673.301875555
6	2458	18	1682.2138796467
6	2774	19	1691.5459182626
6	3183	20	1695.5099147679
6	3592	21	1697.3308411958
6	4001	22	1698.6335971011
6	4515	23	1699.8391930545
6	5029	24	1700.7320023719
6	5543	25	1701.2941834759
6	6174	26	1708.3978488175
6	6805	27	1718.9439634858
6	7436	28	1731.5308475178
6	8196	29	1745.2985167308
6	8956	30	1759.1189484736
6	9716	31	1773.033284259
6	10616	32	1786.9263172904
6	11517	33	1800.8424062571
6	12418	34	1814.7415532097
6	13472	35	1828.6279946407
6	14526	36	1842.5211894047
6	15580	37	1856.4504067414
6	16799	38	1870.362115399
6	18018	39	1884.2511058366
6	19237	40	1898.150578063
6	20633	41	1912.0449035605
6	22029	42	1925.9381259941
6	23425	43	1939.8457802581
6	25010	44	1953.7382693188
6	26594	45	1967.6194902081
6	28179	46	1981.5164272105
6	29965	47	1995.4064328251
6	31751	48	2009.2884140396
6	33537	49	2023.165334505
6	35536	50	2037.0672076773
6	37535	51	2050.942565321
6	39534	52	2064.8483957723
6	41758	53	2078.754013543
6	43982	54	2092.6537938379
6	46206	55	2105.6893007364
6	48667	56	2115.3934075218
6	51127	57	2120.5034639826
6	53588	58	2120.5707901428
6	56298	59	2120.100904949
6	59008	60	2119.6305731572
6	61718	61	2119.160115581
6	64688	62	2118.6901442679
6	67659	63	2118.2197627351
6	70630	64	2117.748758764
6	73873	65	2117.2785659507
6	77117	66	2116.8085654471
6	80360	67	2116.3381540589
6	83889	68	2115.8679307271
6	87416	69	2115.0734324455
6	90943	70	2113.117474094
6	94769	71	2111.1620108271
6	98593	72	2106.8134566117
6	102417	73	2102.3345389208
6	106551	74	2097.6439806372
6	110684	75	2091.0703529529
6	114816	76	2086.1090495121
6	119271	77	2082.6641800171
6	123725	78	2080.516496351
6	128180	79	2079.3426997084
6	132968	80	2078.8017351869
6	137757	81	2078.584299556
6	142544	82	2078.5050025163
6	147675	83	2078.4764596215
6	152807	84	2078.4662605636
6	158115	85	2078.4626007918
6	163606	86	2078.4613038972
6	174217	87	2078.4608360277
6	179706	88	2078.4606658332
6	190613	89	2078.4606050653
6	196473	90	2078.4605832752
6	202708	91	2078.4605760388
6	208948	92	2078.4605760388
6	215383	93	2078.4605760388
6	221624	94	2078.4605760388
6	228459	95	2078.4605760388
6	235091	96	2078.4605760388
6	242118	97	2078.4605760388
6	249152	98	2078.4605760388
6	256384	99	2078.4605760388
6	263409	100	2078.4605760388
6	271053	101	2078.4605760388
6	278466	102	2078.4605760388
6	286307	103	2078.4605760388
6	294133	104	2078.4605760388
6	302167	105	2078.4605760388
6	309990	106	2078.4605760388
6	318473	107	2078.4605760388
6	326742	108	2078.4605760388
6	335448	109	2078.4605760388
6	344158	110	2078.4605760388
6	352849	111	2078.4605760388
6	361737	112	2078.4605760388
6	370855	113	2078.4605760388
6	380186	114	2078.4605760388
6	389269	115	2078.4605760388
6	399315	116	2078.4605760388
6	408864	117	2078.4605760388
6	418895	118	2078.4605760388
6	428921	119	2078.4605760388
6	439198	120	2078.4605760388
6	449230	121	2078.4605760388
6	460007	122	2078.4605760388
6	470515	123	2078.4605760388
6	481530	124	2078.4605760388
6	492532	125	2078.249014724
6	503794	126	2077.1949394597
6	514765	127	2075.0013293456
6	526518	128	2070.9076127177
6	537985	129	2067.4490347402
6	549981	130	2060.285861616
6	561967	131	2051.6777054612
6	573937	132	2041.8297830392
6	586174	133	2031.6702941926
6	598704	134	2021.493287323
6	611510	135	2011.3364173146
6	624035	136	2001.1795974905
6	637699	137	1991.0258607436
6	650808	138	1980.8674998162
6	664474	139	1971.1253783628
6	678160	140	1961.401257514
6	692152	141	1951.691304503
6	705854	142	1941.9867431251
6	720453	143	1932.2774640145
6	734772	144	1922.5602575596
6	749682	145	1912.8568496592
6	764594	146	1903.125578667
6	779818	147	1893.3977376623
6	794755	148	1883.6910427129
6	810617	149	1873.9732012954
6	826193	150	1864.0175983226
6	841768	151	1854.0424315697
6	858596	152	1844.0722908285
6	874796	153	1834.1094827102
6	891628	154	1824.1407492319
6	908452	155	1814.1691042008
6	925593	156	1804.1947407657
6	942399	157	1794.2283071671
6	960178	158	1784.2573344037
6	977608	159	1774.2885577334
6	995665	160	1764.5284130014
6	1013708	161	1754.9370631101
6	1032052	162	1745.3352343775
6	1050032	163	1735.6203876995
6	1068993	164	1725.8595111202
6	1087565	165	1716.1019093618
6	1106796	166	1706.3441011505
6	1125981	167	1696.5910644149
6	1145476	168	1686.8490845831
6	1164564	169	1677.1169436853
6	1184308	170	1667.3633353235
6	1204335	171	1657.6143843699
6	1223981	172	1647.8626336399
6	1244983	173	1638.1156774191
6	1265240	174	1628.3575107958
6	1286169	175	1618.6065200334
6	1307076	176	1608.862050565
6	1328316	177	1599.1115391506
6	1349162	178	1589.3419892481
6	1371079	179	1579.6036810968
6	1392625	180	1569.8384668855
6	1414897	181	1560.075965533
6	1437164	182	1550.3315559505
6	1459800	183	1540.4422861543
6	1482072	184	1530.5615074448
6	1505448	185	1520.6792300269
6	1528442	186	1510.801277793
6	1552176	187	1500.9203884043
6	1575905	188	1491.5936991926
6	1600005	189	1482.4874965642
6	1623716	190	1473.3747092662
6	1648179	191	1464.2855508653
6	1673011	192	1455.1737939268
6	1697458	193	1446.5435439739
6	1723456	194	1438.5354815945
6	1748647	195	1430.5276779355
6	1774602	196	1422.515062049
6	1800539	197	1414.4954506345
6	1826866	198	1407.6336895786
6	1852771	199	1401.7091985373
6	1879831	200	1395.7814483019
5	104	4	2414.8767583254
5	168	5	2414.8767583254
5	232	6	2411.8725636174
5	296	7	2407.2970525089
5	405	8	2402.4626210862
5	514	9	2396.3056860371
5	623	10	2388.8743536096
5	789	11	2380.097228827
5	955	12	2370.3507264333
5	1121	13	2360.5878487076
5	1356	14	2350.7849318213
5	1591	15	2341.2418729237
5	1826	16	2334.6305580324
5	2142	17	2337.3467480277
5	2458	18	2348.0519014368
5	2774	19	2358.3998493504
5	3183	20	2371.2788021446
5	3592	21	2385.0887639745
5	4001	22	2398.4985461925
5	4515	23	2411.2485283293
5	5029	24	2420.6905829484
5	5543	25	2427.6440450998
5	6174	26	2431.3031180431
5	6805	27	2432.9057471878
5	7436	28	2434.8184996871
5	8196	29	2436.9106889558
5	8956	30	2438.5031214217
5	9716	31	2439.359314087
5	10616	32	2440.3695716034
5	11517	33	2441.3815056744
5	12418	34	2442.392207776
5	13472	35	2443.4019859718
5	14526	36	2444.4122552489
5	15580	37	2445.4251439738
5	16799	38	2446.4367595227
5	18018	39	2447.4467230743
5	19237	40	2448.4574488286
5	20633	41	2449.467800329
5	22029	42	2450.4780716181
5	23425	43	2449.7461704329
5	25010	44	2448.6331060936
5	26594	45	2447.5209445587
5	28179	46	2446.407523851
5	29965	47	2445.2946584851
5	31751	48	2444.1824360332
5	33537	49	2443.0706190476
5	35536	50	2441.9568028547
5	37535	51	2440.8451110823
5	39534	52	2439.8503503047
5	41758	53	2438.9091742415
5	43982	54	2438.2310626655
5	46206	55	2433.9050446447
5	48667	56	2424.21615465
5	51127	57	2411.3460908785
5	53588	58	2397.4706148925
5	56298	59	2383.5587488873
5	59008	60	2369.633660475
5	61718	61	2355.7048479554
5	64688	62	2341.7904321874
5	67659	63	2327.8638711022
5	70630	64	2313.9188814831
5	73873	65	2299.9979078089
5	77117	66	2286.0826278217
5	80360	67	2272.1551827891
5	83889	68	2258.2333055256
5	87416	69	2244.3319301521
5	90943	70	2230.5388995206
5	94769	71	2216.7493601282
5	98593	72	2203.5089906314
5	102417	73	2190.3028214657
5	106551	74	2177.2175397498
5	110684	75	2166.0508945999
5	114816	76	2157.6231104804
5	119271	77	2151.7712981963
5	123725	78	2148.1230201763
5	128180	79	2146.1290875688
5	132968	80	2145.2101491778
5	137757	81	2144.8407904832
5	142544	82	2144.7060883162
5	147675	83	2144.6576023959
5	152807	84	2144.6402772203
5	158115	85	2144.6340603527
5	163606	86	2144.6318573126
5	174217	87	2144.6310625414
5	179706	88	2144.6307734308
5	190613	89	2144.630670205
5	196473	90	2144.6306331899
5	202708	91	2144.6306208968
5	208948	92	2144.6306208968
5	215383	93	2144.6306208968
5	221624	94	2144.6306208968
5	228459	95	2144.6306208968
5	235091	96	2144.6306208968
5	242118	97	2144.6306208968
5	249152	98	2144.6306208968
5	256384	99	2144.6306208968
5	263409	100	2144.6306208968
5	271053	101	2144.6306208968
5	278466	102	2144.6306208968
5	286307	103	2144.6306208968
5	294133	104	2144.6306208968
5	302167	105	2144.6306208968
5	309990	106	2144.6306208968
5	318473	107	2144.6306208968
5	326742	108	2144.6306208968
5	335448	109	2144.6306208968
5	344158	110	2144.6306208968
5	352849	111	2144.6306208968
5	361737	112	2144.6306208968
5	370855	113	2144.6306208968
5	380186	114	2144.6306208968
5	389269	115	2144.6306208968
5	399315	116	2144.6306208968
5	408864	117	2144.6306208968
5	418895	118	2144.6306208968
5	428921	119	2144.6306208968
5	439198	120	2144.6306208968
5	449230	121	2144.6306208968
5	460007	122	2144.6306208968
5	470515	123	2144.6306208968
5	481530	124	2144.6306208968
5	492532	125	2144.271240926
5	503794	126	2142.4806794574
5	514765	127	2139.1421320778
5	526518	128	2134.9060802547
5	537985	129	2127.1476351008
5	549981	130	2120.4367071232
5	561967	131	2112.3720247579
5	573937	132	2103.1458484584
5	586174	133	2093.6277764036
5	598704	134	2084.0932923211
5	611510	135	2074.5776737646
5	624035	136	2065.0621022239
5	637699	137	2055.5494191108
5	650808	138	2046.0324037642
5	664474	139	2036.0468948298
5	678160	140	2026.0433869272
5	692152	141	2016.0544539228
5	705854	142	2006.0710674602
5	720453	143	1996.0828277187
5	734772	144	1986.0864328698
5	749682	145	1976.1042330253
5	764594	146	1966.0933695459
5	779818	147	1956.0860346018
5	794755	148	1946.1004532676
5	810617	149	1936.1034052128
5	826193	150	1926.3508274694
5	841768	151	1916.6163277385
5	858596	152	1906.886732759
5	874796	153	1897.1642934916
5	891628	154	1887.4360718232
5	908452	155	1877.7050088475
5	925593	156	1867.9712930534
5	942399	157	1858.2453157756
5	960178	158	1848.5149088484
5	977608	159	1838.7866450298
5	995665	160	1828.8663656547
5	1013708	161	1818.7655445216
5	1032052	162	1808.6536879344
5	1050032	163	1798.6862498338
5	1068993	164	1788.7263413786
5	1087565	165	1778.7697745202
5	1106796	166	1768.812996999
5	1125981	167	1758.8610882476
5	1145476	168	1748.9204618596
5	1164564	169	1738.9898750285
5	1184308	170	1729.0373829948
5	1204335	171	1719.0896433379
5	1223981	172	1709.1390468152
5	1244983	173	1699.193342565
5	1265240	174	1689.2361993233
5	1286169	175	1679.2863782648
5	1307076	176	1669.3432114742
5	1328316	177	1659.3938795371
5	1349162	178	1649.4251209022
5	1371079	179	1639.4882410626
5	1392625	180	1629.5239065279
5	1414897	181	1619.5623401684
5	1437164	182	1609.7731259873
5	1459800	183	1599.9764395078
5	1482072	184	1590.1881646215
5	1505448	185	1580.3984050575
5	1528442	186	1570.6129301849
5	1552176	187	1560.8245456557
5	1575905	188	1550.4980561173
5	1600005	189	1539.9694828199
5	1623716	190	1529.4332963421
5	1648179	191	1518.9244295466
5	1673011	192	1508.3894343675
5	1697458	193	1497.478323005
5	1723456	194	1486.1070794987
5	1748647	195	1474.7362033684
5	1774602	196	1463.3584939971
5	1800539	197	1451.9708511569
5	1826866	198	1439.9031308525
5	1852771	199	1427.3368582649
5	1879831	200	1414.7636726915
54	11517	33	4.2536079204924
54	12418	34	5.6097873961696
54	13472	35	7.0608471949256
54	14526	36	8.1784534517424
54	15580	37	7.3049589891909
54	16799	38	1.6992497596727
54	18018	39	2.2877903665614
54	19237	40	1.720418770862
54	20633	41	2.0573732731205
54	22029	42	2.0993884002122
54	23425	43	2.0329893746275
54	25010	44	2.1511492771089
54	26594	45	2.055763151868
54	28179	46	0.973
54	29965	47	0.973
54	31751	48	0.973
54	33537	49	0.973
54	35536	50	3.6079232311225
54	37535	51	0.973
54	39534	52	6.1408803435004
54	41758	53	6.8216399591446
54	43982	54	8.8976355453378
54	46206	55	5.6108343781967
54	48667	56	2.0228631444349
54	51127	57	2.0144359520848
54	53588	58	2.1802488842147
54	56298	59	1.7929748574303
54	59008	60	1.9323127238067
54	61718	61	2.4285853961764
54	64688	62	1.7383967094798
54	67659	63	2.1287188156895
54	70630	64	1.8703465381485
54	73873	65	2.2357639473273
54	77117	66	1.9959696560654
54	80360	67	2.1062086218696
54	83889	68	1.3241384822667
54	87416	69	1.1284955882157
54	90943	70	1.5228391538703
54	94769	71	1.6433849183498
54	98593	72	1.3273117625201
54	102417	73	1.8141211477603
54	106551	74	1.5458920418585
54	110684	75	1.6202891617171
54	114816	76	1.897663472598
54	119271	77	2.616213757607
54	123725	78	3.262736721356
54	128180	79	2.0681394624811
54	132968	80	2.3223282334101
54	137757	81	1.9779944991034
54	142544	82	2.4988873667324
54	147675	83	2.0646939849653
54	152807	84	2.2752965216503
54	158115	85	1.8791737221509
54	163606	86	2.6451846586298
54	174217	87	1.7077726264306
54	179706	88	2.306092009507
54	190613	89	1.9721476550744
54	196473	90	1.8670042218452
54	202708	91	2.4734898682155
54	208948	92	1.8078327502787
54	215383	93	1.8831220945229
54	221624	94	2.1044118147842
54	228459	95	2.0686981980019
54	235091	96	0.973
54	242118	97	0.973
54	249152	98	0.973
54	256384	99	0.973
54	263409	100	0.973
54	271053	101	0.973
54	278466	102	0.973
54	286307	103	0.973
54	294133	104	0.973
54	302167	105	0.973
54	309990	106	0.973
54	318473	107	0.973
54	326742	108	0.973
54	335448	109	0.973
54	344158	110	0.973
54	352849	111	0.973
54	361737	112	0.973
54	370855	113	0.973
54	380186	114	0.973
54	389269	115	0.973
54	399315	116	0.973
54	408864	117	0.973
54	418895	118	0.973
54	428921	119	0.973
54	439198	120	0.973
54	449230	121	0.973
54	460007	122	0.973
54	470515	123	0.973
54	481530	124	0.973
54	492532	125	0.973
54	503794	126	0.973
54	514765	127	0.973
54	526518	128	0.973
54	537985	129	0.973
54	549981	130	0.973
54	561967	131	0.973
54	573937	132	0.973
54	586174	133	0.973
54	598704	134	0.973
54	611510	135	0.973
54	624035	136	0.973
54	637699	137	0.973
54	650808	138	0.973
54	664474	139	0.973
54	678160	140	0.973
54	692152	141	0.973
54	705854	142	0.973
54	720453	143	0.973
54	734772	144	0.973
54	749682	145	0.973
54	764594	146	0.973
54	779818	147	0.973
54	794755	148	0.973
54	810617	149	0.973
54	826193	150	0.973
54	841768	151	0.973
54	858596	152	0.973
54	874796	153	0.973
54	891628	154	2.5855247219641
54	908452	155	3.0979507992076
54	925593	156	4.8894608007389
[...]
48	35536	50	2.1636936872965
48	37535	51	2.1029672629572
48	39534	52	1.9756188266189
48	41758	53	0.9802875911224
48	43982	54	0.068536760106216
48	46206	55	-0.05880722823087
48	48667	56	0.036856680314521
48	51127	57	-0.036578740226105
48	53588	58	-0.031446959750539
48	56298	59	-0.19738995445817
48	59008	60	-0.1256223552388
48	61718	61	-0.2308695422341
48	64688	62	-0.2060114680539
48	67659	63	-0.12021136399281
48	70630	64	-0.039295833455043
48	73873	65	-0.15038987664831
48	77117	66	0.023492317434437
48	80360	67	-0.030237328560979
48	83889	68	0.064633606100264
48	87416	69	-0.076874979987599
48	90943	70	-0.013147008174478
48	94769	71	-0.036473707671837
48	98593	72	0.044353525819444
48	102417	73	-0.028581897664116
48	106551	74	-0.085937978400894
48	110684	75	-0.056792106027153
48	114816	76	0.16162217023882
48	119271	77	0.21682610792629
48	123725	78	0.57410377389803
48	128180	79	0.13017127803733
48	132968	80	0.0057772370090721
48	137757	81	-0.023265611673709
48	142544	82	0.077847422089501
48	147675	83	0.036244384361577
48	152807	84	0.0051495857441335
48	158115	85	0.16427054540412
48	163606	86	-0.085222447307585
48	174217	87	0.077179613663635
48	179706	88	-0.015225312239291
48	190613	89	-0.046092607451136
48	196473	90	-0.005017313142762
48	202708	91	0.097298060036719
48	208948	92	-0.10481932101356
48	215383	93	0.10389726282828
48	221624	94	-0.020574594323662
48	228459	95	0.029836936539354
48	235091	96	-0.90745764305902
48	242118	97	-1.980805199894
48	249152	98	-1.7384289232344
48	256384	99	-1.6176107526326
48	263409	100	-1.5797083764592
48	271053	101	-1.3739218033218
48	278466	102	-1.3045784300383
48	286307	103	-1.245071159445
48	294133	104	-0.94045808589919
48	302167	105	-0.63170959600544
48	309990	106	-0.35421736303914
48	318473	107	-0.17607358038484
48	326742	108	-0.074166935046954
48	335448	109	-0.033404789680645
48	344158	110	-0.013597183940222
48	352849	111	-0.0059561985291128
48	361737	112	-0.002306925615158
48	370855	113	-0.0010043006717283
48	380186	114	-0.00038621477642832
48	389269	115	-0.00016021992384959
48	399315	116	-6.230589423425e-05
48	408864	117	-2.2762431274601e-05
48	418895	118	-1.2670923665467e-05
48	428921	119	0
48	439198	120	0
48	449230	121	0
48	460007	122	0
48	470515	123	0
48	481530	124	1.0245135300139e-05
48	492532	125	2.1291204086554e-05
48	503794	126	0.0018003120650503
48	514765	127	0.028118321090835
48	526518	128	0.18148398142564
48	537985	129	0.66521285908445
48	549981	130	1.0477838382199
48	561967	131	1.2636879346837
48	573937	132	0.90480872923711
48	586174	133	0.8042246845547
48	598704	134	1.3654645025609
48	611510	135	0.45269390846714
48	624035	136	-0.20447124030161
48	637699	137	1.0482147011653
48	650808	138	0.34524758642074
48	664474	139	2.0179705675365
48	678160	140	1.8411612342391
48	692152	141	1.9634301102394
48	705854	142	0.23596415756261
48	720453	143	-0.091609625364654
48	734772	144	0.11077572962968
48	749682	145	-0.073515849383547
48	764594	146	-0.033131231202278
48	779818	147	0.028097851513884
48	794755	148	0.021327206366696
48	810617	149	0.048953633247875
48	826193	150	-0.031632970247884
48	841768	151	-0.025026495829223
48	858596	152	0.077117725033313
48	874796	153	-0.0092011989536704
48	891628	154	-0.078794078656937
48	908452	155	0.024585243896581
48	925593	156	-0.010444945392665
48	942399	157	-0.021948890199418
48	960178	158	0.058756059356964
48	977608	159	-0.077255526203661
48	995665	160	0.030275727284605
48	1013708	161	-0.038819358560723
48	1032052	162	0.025851499121638
48	1050032	163	0.0031615623272945
48	1068993	164	0.026758094122634
48	1087565	165	0.050446404165122
48	1106796	166	-0.0061508488561959
48	1125981	167	-0.053666396685875
48	1145476	168	0.0075800454756241
48	1164564	169	0.031169365621171
48	1184308	170	-0.079608570181298
48	1204335	171	0.0067579072294759
48	1223981	172	0.044260795556474
48	1244983	173	-0.054991326790768
48	1265240	174	0.0042685690335933
48	1286169	175	0.052864239728077
48	1307076	176	-0.056015794188715
48	1328316	177	0.076961685072165
48	1349162	178	-0.014743055857252
48	1371079	179	0.034660563573707
48	1392625	180	-0.039198336598929
48	1414897	181	-0.049482793242206
48	1437164	182	0.045724828476088
48	1459800	183	-0.026944958483801
48	1482072	184	0.010551232658326
48	1505448	185	-0.021823018519207
48	1528442	186	0.052435229409021
48	1552176	187	-0.067209543860518
48	1575905	188	0.11482526557986
48	1600005	189	-0.034444927768781
48	1623716	190	-0.04216265322175
48	1648179	191	0.047717498298736
48	1673011	192	-0.08474771616282
48	1697458	193	0.073893146186601
48	1723456	194	0.049060567461421
48	1748647	195	-0.046010523645673
48	1774602	196	-0.015333518143743
48	1800539	197	0.019856042522006
48	1826866	198	-0.054992920218503
48	1852771	199	0.00094829940935703
48	1879831	200	-0.015784353525378
47	8196	29	3.8828872453123
47	8956	30	5.9988936607358
47	9716	31	7.9242535287868
47	10616	32	9.9954164889692
47	11517	33	11.954887117562
47	12418	34	13.689103397874
47	13472	35	13.904346669782
47	14526	36	13.976698276459
47	15580	37	13.97994910137
47	16799	38	13.930034680809
47	18018	39	13.87202010669
47	19237	40	13.209564563135
47	20633	41	12.547198375085
47	22029	42	12.157240363273
47	23425	43	11.687026507757
47	25010	44	11.540726032157
47	26594	45	9.7099491805915
47	28179	46	9.5649188336892
47	29965	47	7.8003613390965
47	31751	48	8.8476878584359
47	33537	49	6.665342321227
47	35536	50	8.8290360085235
47	37535	51	10.932003271481
47	39534	52	12.9076220981
47	41758	53	13.887909689222
47	43982	54	13.956446449328
47	46206	55	13.897639221097
47	48667	56	13.934495901412
47	51127	57	13.897917161186
47	53588	58	13.866470201435
47	56298	59	13.669080246977
47	59008	60	13.543457891738
47	61718	61	13.312588349504
47	64688	62	13.10657688145
47	67659	63	12.986365517457
47	70630	64	12.947069684002
47	73873	65	12.796679807354
47	77117	66	12.820172124789
47	80360	67	12.789934796228
47	83889	68	12.854568402328
47	87416	69	12.77769342234
47	90943	70	12.764546414166
47	94769	71	12.728072706494
47	98593	72	12.772426232313
47	102417	73	12.743844334649
47	106551	74	12.657906356248
47	110684	75	12.601114250221
47	114816	76	12.76273642046
47	119271	77	12.979562528386
47	123725	78	13.553666302284
47	128180	79	13.683837580322
47	132968	80	13.689614817331
47	137757	81	13.666349205657
47	142544	82	13.744196627746
47	147675	83	13.780441012108
47	152807	84	13.785590597852
47	158115	85	13.949861143256
47	163606	86	13.864638695949
47	174217	87	13.941818309612
47	179706	88	13.926592997373
47	190613	89	13.880500389922
47	196473	90	13.875483076779
47	202708	91	13.972781136816
47	208948	92	13.867961815802
47	215383	93	13.971859078631
47	221624	94	13.951284484307
47	228459	95	13.981121420846
47	235091	96	13.073663777787
47	242118	97	11.092858577893
47	249152	98	9.3544296546589
47	256384	99	7.7368189020262
47	263409	100	6.157110525567
47	271053	101	4.7831887222452
47	278466	102	3.4786102922069
47	286307	103	2.2335391327619
47	294133	104	1.2930810468627
47	302167	105	0.66137145085725
47	309990	106	0.30715408781811
47	318473	107	0.13108050743327
47	326742	108	0.056913572386319
47	335448	109	0.023508782705673
47	344158	110	0.0099115987654513
47	352849	111	0.0039554002363385
47	361737	112	0.0016484746211805
47	370855	113	0.00064417394945223
47	380186	114	0.00025795917302391
47	389269	115	9.7739249174318e-05
47	399315	116	3.5433354940068e-05
47	408864	117	1.2670923665467e-05
47	418895	118	0
47	428921	119	0
47	439198	120	0
47	449230	121	0
47	460007	122	0
47	470515	123	0
47	481530	124	1.0245135300139e-05
47	492532	125	3.1536339386693e-05
47	503794	126	0.001831848404437
47	514765	127	0.029950169495272
47	526518	128	0.21143415092091
47	537985	129	0.87664701000536
47	549981	130	1.9244308482253
47	561967	131	3.188118782909
47	573937	132	4.0929275121461
47	586174	133	4.8971521967008
47	598704	134	6.2626166992617
47	611510	135	6.7153106077288
47	624035	136	6.5108393674272
47	637699	137	7.5590540685925
47	650808	138	7.9043016550132
47	664474	139	9.9222722225498
47	678160	140	11.763433456789
47	692152	141	13.726863567028
47	705854	142	13.962827724591
47	720453	143	13.871218099226
47	734772	144	13.981993828856
47	749682	145	13.908477979472
47	764594	146	13.87534674827
47	779818	147	13.903444599784
47	794755	148	13.924771806151
47	810617	149	13.973725439399
47	826193	150	13.942092469151
47	841768	151	13.917065973321
47	858596	152	13.994183698355
47	874796	153	13.984982499401
47	891628	154	13.906188420744
47	908452	155	13.930773664641
47	925593	156	13.920328719248
47	942399	157	13.898379829049
47	960178	158	13.957135888406
47	977608	159	13.879880362202
47	995665	160	13.910156089487
47	1013708	161	13.871336730926
47	1032052	162	13.897188230047
47	1050032	163	13.900349792375
47	1068993	164	13.927107886497
47	1087565	165	13.977554290663
47	1106796	166	13.971403441806
47	1125981	167	13.91773704512
47	1145476	168	13.925317090596
47	1164564	169	13.956486456217
47	1184308	170	13.876877886036
47	1204335	171	13.883635793265
47	1223981	172	13.927896588822
47	1244983	173	13.872905262031
47	1265240	174	13.877173831065
47	1286169	175	13.930038070793
47	1307076	176	13.874022276604
47	1328316	177	13.950983961676
47	1349162	178	13.936240905819
47	1371079	179	13.970901469393
47	1392625	180	13.931703132794
47	1414897	181	13.882220339552
47	1437164	182	13.927945168028
47	1459800	183	13.901000209544
47	1482072	184	13.911551442202
47	1505448	185	13.889728423683
47	1528442	186	13.942163653092
47	1552176	187	13.874954109231
47	1575905	188	13.989779374811
47	1600005	189	13.955334447043
47	1623716	190	13.913171793821
47	1648179	191	13.96088929212
47	1673011	192	13.876141575957
47	1697458	193	13.950034722143
47	1723456	194	13.999095289605
47	1748647	195	13.953084765959
47	1774602	196	13.937751247815
47	1800539	197	13.957607290337
47	1826866	198	13.902614370119
47	1852771	199	13.903562669528
47	1879831	200	13.887778316003
46	7436	28	1578.4516975414
46	8196	29	1578.4516975414
46	8956	30	1579.5134272473
46	9716	31	1581.4371518614
46	10616	32	1586.4698844142
46	11517	33	1592.8892969526
46	12418	34	1600.7346143331
46	13472	35	1609.8954394953
46	14526	36	1619.8010426937
46	15580	37	1629.7134084683
46	16799	38	1639.630253504
46	18018	39	1649.8652177965
46	19237	40	1661.9566132678
46	20633	41	1673.9279434606
46	22029	42	1682.1907477807
46	23425	43	1690.4816842517
46	25010	44	1694.9792507365
46	26594	45	1696.6337821614
46	28179	46	1697.8217770569
46	29965	47	1698.7076168377
46	31751	48	1699.54885648
46	33537	49	1700.3335349681
46	35536	50	1700.9704685463
46	37535	51	1703.8499501906
46	39534	52	1713.7175331367
46	41758	53	1725.5980357202
46	43982	54	1739.1750417827
46	46206	55	1752.953718612
46	48667	56	1766.8480891688
46	51127	57	1780.7543037385
46	53588	58	1794.6471531224
46	56298	59	1808.5532933818
46	59008	60	1822.3324052477
46	61718	61	1835.8697147686
46	64688	62	1849.1911173435
46	67659	63	1862.3827910898
46	70630	64	1875.4378973627
46	73873	65	1888.44261433
46	77117	66	1901.3615401061
46	80360	67	1914.1699640714
46	83889	68	1926.9834366515
46	87416	69	1939.7772534657
46	90943	70	1952.5035784729
46	94769	71	1965.2263522288
46	98593	72	1977.9139218871
46	102417	73	1990.5900840452
46	106551	74	2003.2453790344
46	110684	75	2015.916586969
46	114816	76	2028.5679549109
46	119271	77	2041.2579743844
46	123725	78	2053.9689008836
46	128180	79	2067.3676527347
46	132968	80	2080.9256506879
46	137757	81	2094.5142772133
46	142544	82	2107.0752883619
46	147675	83	2116.1491530789
46	152807	84	2120.7816550871
46	158115	85	2120.5329052554
46	163606	86	2120.0651134187
46	174217	87	2119.5973385489
46	179706	88	2119.1285830624
46	190613	89	2118.6608981416
46	196473	90	2118.1921072919
46	202708	91	2117.7228170857
46	208948	92	2117.2530069137
46	215383	93	2116.7838459862
46	221624	94	2116.3139040796
46	228459	95	2115.8437062465
46	235091	96	2114.9756789273
46	242118	97	2113.0597542105
46	249152	98	2111.3850886244
46	256384	99	2108.5451980159
46	263409	100	2105.8292710902
46	271053	101	2103.6092299381
46	278466	102	2101.8694178183
46	286307	103	2100.5681362515
46	294133	104	2099.6778176753
46	302167	105	2099.1282710126
46	309990	106	2098.8264594888
46	318473	107	2098.6791798193
46	326742	108	2098.6145785013
46	335448	109	2098.5869646287
46	344158	110	2098.5754104899
46	352849	111	2098.5705996472
46	361737	112	2098.5686349906
46	370855	113	2098.5678352285
46	380186	114	2098.5675092908
46	389269	115	2098.5673796935
46	399315	116	2098.56732882
46	408864	117	2098.5673098154
46	418895	118	2098.5673029833
46	428921	119	2098.5673022904
46	439198	120	2098.5673022904
46	449230	121	2098.5673022904
46	460007	122	2098.5673022904
46	470515	123	2098.5673022904
46	481530	124	2098.5673022904
46	492532	125	2098.5673019616
46	503794	126	2098.5672972305
46	514765	127	2098.5671096733
46	526518	128	2098.5631718161
46	537985	129	2098.5286175171
46	549981	130	2098.3587126108
46	561967	131	2097.7084554806
46	573937	132	2096.3897281243
46	586174	133	2094.5081031462
46	598704	134	2092.1071142163
46	611510	135	2089.2508847276
46	624035	136	2086.1112581212
46	637699	137	2082.6849972894
46	650808	138	2078.9580327058
46	664474	139	2075.2679469883
46	678160	140	2068.9635939104
46	692152	141	2061.0083433073
46	705854	142	2051.6277145138
46	720453	143	2041.4563725656
46	734772	144	2031.2856834959
46	749682	145	2021.1146862423
46	764594	146	2010.9451309908
46	779818	147	2000.771755157
46	794755	148	1990.6099683978
46	810617	149	1980.4364133393
46	826193	150	1970.617479424
46	841768	151	1960.9007777153
46	858596	152	1951.1898186663
46	874796	153	1941.4615135314
46	891628	154	1931.7418529699
46	908452	155	1922.0225784583
46	925593	156	1912.3129165769
46	942399	157	1902.6066322615
46	960178	158	1892.870478115
46	977608	159	1883.1661860887
46	995665	160	1873.4563656617
46	1013708	161	1863.5557528734
46	1032052	162	1853.5732399691
46	1050032	163	1843.6110940622
46	1068993	164	1833.6288165348
46	1087565	165	1823.6513732765
46	1106796	166	1813.6810938809
46	1125981	167	1803.7034075679
46	1145476	168	1793.729052159
46	1164564	169	1783.7481147107
46	1184308	170	1773.7783290474
46	1204335	171	1763.9539865311
46	1223981	172	1754.3659278452
46	1244983	173	1744.7824437814
46	1265240	174	1735.0763125531
46	1286169	175	1725.3256674074
46	1307076	176	1715.5812822888
46	1328316	177	1705.8230948774
46	1349162	178	1696.0753820678
46	1371079	179	1686.3224959858
46	1392625	180	1676.5734080039
46	1414897	181	1666.8167029377
46	1437164	182	1657.0682920134
46	1459800	183	1647.3029096788
46	1482072	184	1637.5478479033
46	1505448	185	1627.8065300509
46	1528442	186	1618.048486338
46	1552176	187	1608.3062353749
46	1575905	188	1598.5403975025
46	1600005	189	1588.7839592537
46	1623716	190	1579.0289962152
46	1648179	191	1569.276539634
46	1673011	192	1559.5121482015
46	1697458	193	1549.8019203683
46	1723456	194	1539.8923152722
46	1748647	195	1529.959471398
46	1774602	196	1520.0543190148
46	1800539	197	1510.1280634152
46	1826866	198	1500.2200347548
46	1852771	199	1490.7449796004
46	1879831	200	1481.6190007394
45	7436	28	2414.8739556831
45	8196	29	2414.8739556831
45	8956	30	2411.9824938183
45	9716	31	2407.2767486298
45	10616	32	2402.3079262363
45	11517	33	2395.9700331651
45	12418	34	2388.2243426732
45	13472	35	2379.1798498989
45	14526	36	2369.4000369494
45	15580	37	2359.6135473003
45	16799	38	2349.8226352722
45	18018	39	2340.4134316911
45	19237	40	2334.4106986645
45	20633	41	2338.1220065824
45	22029	42	2348.0262513771
45	23425	43	2357.2197601368
45	25010	44	2367.7284599482
45	26594	45	2379.2322233357
45	28179	46	2389.9130072114
45	29965	47	2399.2813543333
45	31751	48	2408.1780252042
45	33537	49	2416.4765241088
45	35536	50	2423.885014496
45	37535	51	2430.565966867
45	39534	52	2432.1115182358
45	41758	53	2433.9169262266
45	43982	54	2435.9801415716
45	46206	55	2437.9788138991
45	48667	56	2438.959339434
45	51127	57	2439.9207622564
45	53588	58	2440.9310064185
45	56298	59	2441.9422170511
45	59008	60	2442.9441905798
45	61718	61	2443.9285810051
45	64688	62	2444.8972713586
45	67659	63	2445.8565282413
45	70630	64	2446.8058543681
45	73873	65	2447.7515163438
45	77117	66	2448.6909398547
45	80360	67	2449.6223280227
45	83889	68	2450.5540833102
45	87416	69	2449.7516607902
45	90943	70	2448.7320293566
45	94769	71	2447.712682449
45	98593	72	2446.696156089
45	102417	73	2445.6805436962
45	106551	74	2444.6666031781
45	110684	75	2443.651387717
45	114816	76	2442.6377618335
45	119271	77	2441.6210391945
45	123725	78	2440.6026414874
45	128180	79	2439.6798390489
45	132968	80	2438.7621909911
45	137757	81	2437.9312684502
45	142544	82	2433.0718497717
45	147675	83	2423.0260501773
45	152807	84	2410.1200629403
45	158115	85	2396.3489590398
45	163606	86	2382.4990709531
45	174217	87	2368.6496851748
45	179706	88	2354.7712663461
45	190613	89	2340.9245436754
45	196473	90	2327.0450778542
45	202708	91	2313.1508276067
45	208948	92	2299.2411827567
45	215383	93	2285.3507600465
45	221624	94	2271.4372149316
45	228459	95	2257.5160926259
45	235091	96	2243.6425917146
45	242118	97	2230.1318703421
45	249152	98	2218.3224605416
45	256384	99	2208.6150612298
45	263409	100	2200.6071019641
45	271053	101	2194.0612707984
45	278466	102	2188.9314035497
45	286307	103	2185.0945515048
45	294133	104	2182.4694312089
45	302167	105	2180.8490830158
45	309990	106	2179.9591863247
45	318473	107	2179.5249295754
45	326742	108	2179.3344514298
45	335448	109	2179.2530314311
45	344158	110	2179.2189638468
45	352849	111	2179.2047789908
45	361737	112	2179.1989861645
45	370855	113	2179.1966280519
45	380186	114	2179.1956670198
45	389269	115	2179.1952848998
45	399315	116	2179.1951348963
45	408864	117	2179.1950788635
45	418895	118	2179.1950587181
45	428921	119	2179.1950566751
45	439198	120	2179.1950566751
45	449230	121	2179.1950566751
45	460007	122	2179.1950566751
45	470515	123	2179.1950566751
45	481530	124	2179.1950566751
45	492532	125	2179.1950557049
45	503794	126	2179.1950417542
45	514765	127	2179.1944887398
45	526518	128	2179.1828778961
45	537985	129	2179.0809939278
45	549981	130	2178.5800262614
45	561967	131	2177.3270634004
45	573937	132	2175.0869364645
45	586174	133	2171.8906133017
45	598704	134	2167.8120447125
45	611510	135	2162.9601573378
45	624035	136	2157.6268622532
45	637699	137	2151.8066605715
45	650808	138	2145.475652338
45	664474	139	2139.4760270689
45	678160	140	2133.0849872603
45	692152	141	2125.6327696727
45	705854	142	2116.845304592
45	720453	143	2107.3171253888
45	734772	144	2097.7895577806
45	749682	145	2088.261701475
45	764594	146	2078.73519599
45	779818	147	2069.2051115094
45	794755	148	2059.6858832935
45	810617	149	2050.1556309207
45	826193	150	2040.2595597195
45	841768	151	2030.2639702907
45	858596	152	2020.2742883468
45	874796	153	2010.2667624515
45	891628	154	2000.2681292453
45	908452	155	1990.2698931689
45	925593	156	1980.2815456238
45	942399	157	1970.2966725868
45	960178	158	1960.2810723986
45	977608	159	1950.2982488335
45	995665	160	1940.3097381917
45	1013708	161	1930.5130644889
45	1032052	162	1920.7715586559
45	1050032	163	1911.0499281015
45	1068993	164	1901.3086519631
45	1087565	165	1891.5720933803
45	1106796	166	1881.8425257038
45	1125981	167	1872.1057299344
45	1145476	168	1862.3721846511
45	1164564	169	1852.6322162377
45	1184308	170	1842.9031303739
45	1204335	171	1833.0542894988
45	1223981	172	1822.9588872168
45	1244983	173	1812.8683016194
45	1265240	174	1802.8499915407
45	1286169	175	1792.9004807954
45	1307076	176	1782.9573577516
45	1328316	177	1773.0001509154
45	1349162	178	1763.0536323113
45	1371079	179	1753.1018349261
45	1392625	180	1743.1539131027
45	1414897	181	1733.1982188445
45	1437164	182	1723.2509878885
45	1459800	183	1713.2864393872
45	1482072	184	1703.332421935
45	1505448	185	1693.3924287142
45	1528442	186	1683.4353685074
45	1552176	187	1673.4944231453
45	1575905	188	1663.5294098161
45	1600005	189	1653.5739878165
45	1623716	190	1643.6200711151
45	1648179	191	1633.6687119904
45	1673011	192	1623.7051746012
45	1697458	193	1613.8965537885
45	1723456	194	1604.0797545668
45	1748647	195	1594.2399342046
45	1774602	196	1584.4275459951
45	1800539	197	1574.5942522071
45	1826866	198	1564.7790146574
45	1852771	199	1554.5498396286
45	1879831	200	1543.9996406469

